.model p pmos level=49
.model n nmos level=49
