*SPEF "1481-1998"
*DESIGN "test_pe"
*DATE "Thu Mar 14 05:27:04 2019"
*VENDOR "Synopsys, Inc."
*PROGRAM "icc_shell"
*VERSION "M-2016.12-SP2"
*DESIGN_FLOW "PIN_CAP NONE"
*DIVIDER /
*DELIMITER :
*BUS_DELIMITER [ ]
*T_UNIT 1 NS
*C_UNIT 1 FF
*R_UNIT 1 OHM
*L_UNIT 1 HENRY

*NAME_MAP
*1 cfg_d[0]
*2 VDD
*3 VSS
*4 cfg_d[8]
*5 cfg_d[7]
*6 cfg_d[6]
*7 cfg_d[5]
*8 cfg_d[4]
*9 cfg_d[3]
*10 cfg_d[2]
*11 cfg_d[1]
*12 cfg_d[16]
*13 cfg_d[15]
*14 cfg_d[14]
*15 cfg_d[13]
*16 cfg_d[12]
*17 cfg_d[11]
*18 cfg_d[10]
*19 cfg_d[9]
*20 cfg_d[24]
*21 cfg_d[23]
*22 cfg_d[22]
*23 cfg_d[21]
*24 cfg_d[20]
*25 cfg_d[19]
*26 cfg_d[18]
*27 cfg_d[17]
*28 cfg_a[0]
*29 cfg_d[31]
*30 cfg_d[30]
*31 cfg_d[29]
*32 cfg_d[28]
*33 cfg_d[27]
*34 cfg_d[26]
*35 cfg_d[25]
*36 data0[0]
*37 cfg_a[7]
*38 cfg_a[6]
*39 cfg_a[5]
*40 cfg_a[4]
*41 cfg_a[3]
*42 cfg_a[2]
*43 cfg_a[1]
*44 data0[8]
*45 data0[7]
*46 data0[6]
*47 data0[5]
*48 data0[4]
*49 data0[3]
*50 data0[2]
*51 data0[1]
*52 data1[0]
*53 data0[15]
*54 data0[14]
*55 data0[13]
*56 data0[12]
*57 data0[11]
*58 data0[10]
*59 data0[9]
*60 data1[8]
*61 data1[7]
*62 data1[6]
*63 data1[5]
*64 data1[4]
*65 data1[3]
*66 data1[2]
*67 data1[1]
*68 data2[0]
*69 data1[15]
*70 data1[14]
*71 data1[13]
*72 data1[12]
*73 data1[11]
*74 data1[10]
*75 data1[9]
*76 data2[8]
*77 data2[7]
*78 data2[6]
*79 data2[5]
*80 data2[4]
*81 data2[3]
*82 data2[2]
*83 data2[1]
*84 res[0]
*85 data2[15]
*86 data2[14]
*87 data2[13]
*88 data2[12]
*89 data2[11]
*90 data2[10]
*91 data2[9]
*92 res[8]
*93 res[7]
*94 res[6]
*95 res[5]
*96 res[4]
*97 res[3]
*98 res[2]
*99 res[1]
*100 read_data[0]
*101 res[15]
*102 res[14]
*103 res[13]
*104 res[12]
*105 res[11]
*106 res[10]
*107 res[9]
*108 read_data[8]
*109 read_data[7]
*110 read_data[6]
*111 read_data[5]
*112 read_data[4]
*113 read_data[3]
*114 read_data[2]
*115 read_data[1]
*116 read_data[16]
*117 read_data[15]
*118 read_data[14]
*119 read_data[13]
*120 read_data[12]
*121 read_data[11]
*122 read_data[10]
*123 read_data[9]
*124 read_data[24]
*125 read_data[23]
*126 read_data[22]
*127 read_data[21]
*128 read_data[20]
*129 read_data[19]
*130 read_data[18]
*131 read_data[17]
*132 clk
*133 read_data[31]
*134 read_data[30]
*135 read_data[29]
*136 read_data[28]
*137 read_data[27]
*138 read_data[26]
*139 read_data[25]
*140 res_p
*141 irq
*142 bit2
*143 bit1
*144 bit0
*145 cfg_en
*146 clk_en
*147 rst_n
*148 INVX8_LVT_G1B13I1
*149 clk_gate_op_code_reg/latch
*150 net790
*151 NBUFFX4_LVT_G2B1I1
*152 U307
*153 N31
*154 U309
*155 U347
*156 op_code_reg_0_
*157 test_debug_bit/U5
*158 test_debug_data/debug_val_reg_0_
*159 test_lut/GEN_LUT_0__lut_reg_0_
*160 test_opt_reg_f/U6
*161 test_opt_reg_e/U6
*162 test_opt_reg_d/U6
*163 test_opt_reg_c/U23
*164 test_opt_reg_a/U23
*165 test_debug_bit/n1
*166 test_debug_bit/U4
*167 test_debug_bit/n4
*168 test_debug_bit/U1
*169 read_data_debug_bit_0_
*170 test_debug_bit/U2
*171 test_debug_bit/debug_val_reg_0_
*172 U207
*173 n_6_net_
*174 U195
*175 irq_bit
*176 U311
*177 U83
*178 U1
*179 U3
*180 U2
*181 test_debug_data/net808
*182 test_debug_data/debug_val_reg_15_
*183 test_debug_data/debug_val_reg_7_
*184 test_debug_data/debug_val_reg_8_
*185 test_debug_data/debug_val_reg_9_
*186 test_debug_data/debug_val_reg_10_
*187 test_debug_data/debug_val_reg_11_
*188 test_debug_data/debug_val_reg_12_
*189 test_debug_data/debug_val_reg_13_
*190 test_debug_data/debug_val_reg_14_
*191 test_debug_data/clk_gate_debug_val_reg/latch
*192 test_debug_data/debug_val_reg_1_
*193 test_debug_data/debug_val_reg_2_
*194 test_debug_data/debug_val_reg_3_
*195 test_debug_data/debug_val_reg_4_
*196 test_debug_data/debug_val_reg_5_
*197 test_debug_data/debug_val_reg_6_
*198 n_5_net_
*199 U310
*200 irq_data
*201 test_debug_data/U20
*202 test_debug_data/n17
*203 test_debug_data/U19
*204 test_debug_data/n18
*205 test_debug_data/U10
*206 test_debug_data/n15
*207 test_debug_data/U14
*208 test_debug_data/n13
*209 test_debug_data/U18
*210 test_debug_data/n14
*211 test_debug_data/U16
*212 test_debug_data/n16
*213 test_debug_data/U12
*214 test_debug_data/n33
*215 test_debug_data/U17
*216 U69
*217 U68
*218 test_debug_data/n12
*219 test_debug_data/n22
*220 test_debug_data/U26
*221 test_debug_data/n32
*222 test_debug_data/U25
*223 test_debug_data/U15
*224 U71
*225 U70
*226 test_debug_data/n11
*227 test_debug_data/n21
*228 test_debug_data/U24
*229 test_debug_data/n34
*230 test_debug_data/U13
*231 U65
*232 U64
*233 test_debug_data/n10
*234 test_debug_data/n20
*235 test_debug_data/U27
*236 test_debug_data/n31
*237 test_debug_data/U11
*238 U67
*239 U66
*240 test_debug_data/n9
*241 test_debug_data/n19
*242 test_debug_data/n7
*243 test_debug_data/U5
*244 test_debug_data/n5
*245 test_debug_data/U9
*246 test_debug_data/n6
*247 test_debug_data/U7
*248 test_debug_data/n8
*249 test_debug_data/U3
*250 test_debug_data/n30
*251 test_debug_data/U21
*252 test_debug_data/U8
*253 U78
*254 U76
*255 test_debug_data/n4
*256 test_debug_data/n26
*257 test_debug_data/n29
*258 test_debug_data/U1
*259 test_debug_data/U6
*260 U80
*261 U79
*262 test_debug_data/n3
*263 test_debug_data/n25
*264 test_debug_data/n28
*265 test_debug_data/U23
*266 test_debug_data/U4
*267 U73
*268 U72
*269 test_debug_data/n2
*270 test_debug_data/n24
*271 test_debug_data/n27
*272 test_debug_data/U22
*273 test_debug_data/U2
*274 U75
*275 U74
*276 test_debug_data/n1
*277 test_debug_data/n23
*278 read_data_debug_data\[0\]
*279 U212
*280 read_data_debug_data\[1\]
*281 U224
*282 test_lut/GEN_LUT_0__lut_reg_1_
*283 test_opt_reg_c/U24
*284 test_opt_reg_a/U24
*285 U348
*286 op_code_reg_1_
*287 read_data_debug_data\[2\]
*288 U228
*289 test_lut/GEN_LUT_0__lut_reg_2_
*290 test_opt_reg_c/U25
*291 test_opt_reg_a/U25
*292 U349
*293 op_code_reg_2_
*294 read_data_debug_data\[3\]
*295 U232
*296 test_lut/GEN_LUT_0__lut_reg_3_
*297 test_opt_reg_c/U26
*298 test_opt_reg_a/U26
*299 U350
*300 op_code_reg_3_
*301 read_data_debug_data\[4\]
*302 U236
*303 test_lut/GEN_LUT_0__lut_reg_4_
*304 test_opt_reg_c/U27
*305 test_opt_reg_a/U27
*306 U351
*307 op_code_reg_4_
*308 read_data_debug_data\[5\]
*309 U240
*310 test_lut/GEN_LUT_0__lut_reg_5_
*311 test_opt_reg_c/U28
*312 test_opt_reg_a/U28
*313 U352
*314 op_code_reg_5_
*315 read_data_debug_data\[6\]
*316 U244
*317 test_lut/GEN_LUT_0__lut_reg_6_
*318 test_opt_reg_c/U29
*319 test_opt_reg_a/U29
*320 U353
*321 op_code_reg_6_
*322 read_data_debug_data\[7\]
*323 U248
*324 test_lut/GEN_LUT_0__lut_reg_7_
*325 test_opt_reg_c/U30
*326 test_opt_reg_a/U30
*327 U354
*328 op_code_reg_7_
*329 read_data_debug_data\[8\]
*330 U252
*331 test_opt_reg_c/U31
*332 test_opt_reg_a/U31
*333 U355
*334 op_code_reg_8_
*335 read_data_debug_data\[9\]
*336 U256
*337 test_opt_reg_c/U32
*338 test_opt_reg_a/U32
*339 U356
*340 op_code_reg_9_
*341 read_data_debug_data\[10\]
*342 U260
*343 test_opt_reg_c/U33
*344 test_opt_reg_a/U33
*345 U357
*346 op_code_reg_10_
*347 read_data_debug_data\[11\]
*348 U264
*349 test_opt_reg_c/U34
*350 test_opt_reg_a/U34
*351 U358
*352 op_code_reg_11_
*353 read_data_debug_data\[12\]
*354 U268
*355 test_opt_reg_c/U35
*356 test_opt_reg_a/U35
*357 U359
*358 op_code_reg_12_
*359 read_data_debug_data\[13\]
*360 U272
*361 test_opt_reg_c/U36
*362 test_opt_reg_a/U36
*363 U360
*364 op_code_reg_13_
*365 read_data_debug_data\[14\]
*366 U276
*367 test_opt_reg_c/U37
*368 test_opt_reg_a/U37
*369 U361
*370 op_code_reg_14_
*371 read_data_debug_data\[15\]
*372 U280
*373 test_opt_reg_c/U38
*374 test_opt_reg_a/U38
*375 U362
*376 op_code_reg_15_
*377 test_lut/net826
*378 test_lut/clk_gate_GEN_LUT_0__lut_reg/latch
*379 test_lut/N4
*380 test_lut/U5
*381 test_lut/n6
*382 test_lut/U9
*383 test_lut/U6
*384 test_lut/n5
*385 test_lut/U7
*386 res_lut
*387 U301
*388 test_lut/n4
*389 test_lut/U8
*390 op_e_p
*391 test_opt_reg_e/U4
*392 read_data_lut\[0\]
*393 U220
*394 op_f_p
*395 test_opt_reg_f/U4
*396 op_d_p
*397 test_pe_comp/U203
*398 test_pe_comp/U200
*399 test_pe_comp/U198
*400 test_pe_comp/U83
*401 U345
*402 test_opt_reg_d/U2
*403 read_data_lut\[4\]
*404 U235
*405 read_data_lut\[5\]
*406 U239
*407 read_data_lut\[1\]
*408 U223
*409 read_data_lut\[2\]
*410 U227
*411 read_data_lut\[6\]
*412 U243
*413 read_data_lut\[7\]
*414 U247
*415 read_data_lut\[3\]
*416 U231
*417 U218
*418 U205
*419 U202
*420 U183
*421 U4
*422 test_lut/n3
*423 test_lut/U4
*424 U196
*425 U185
*426 U182
*427 test_lut/n2
*428 test_lut/U3
*429 U204
*430 U198
*431 U209
*432 U206
*433 U199
*434 U186
*435 U6
*436 U189
*437 U184
*438 U201
*439 U193
*440 test_lut/n1
*441 test_lut/U2
*442 U217
*443 U197
*444 U181
*445 U188
*446 U5
*447 U192
*448 U215
*449 test_pe_comp/shift_res\[10\]
*450 test_pe_comp/test_shifter/U164
*451 test_pe_comp/U295
*452 test_pe_comp/test_shifter/n147
*453 test_pe_comp/test_shifter/U163
*454 test_pe_comp/test_shifter/n148
*455 test_pe_comp/test_shifter/U149
*456 test_pe_comp/test_shifter/U148
*457 op_b\[3\]
*458 test_opt_reg_file/U8
*459 U51
*460 test_pe_comp/test_shifter/n144
*461 test_pe_comp/test_shifter/U157
*462 test_pe_comp/test_shifter/U156
*463 test_pe_comp/test_shifter/n145
*464 test_pe_comp/test_shifter/U154
*465 test_pe_comp/test_shifter/n143
*466 test_pe_comp/test_shifter/U130
*467 test_pe_comp/test_shifter/U118
*468 test_pe_comp/test_shifter/U94
*469 test_pe_comp/test_shifter/U73
*470 test_pe_comp/test_shifter/U49
*471 test_pe_comp/test_shifter/U48
*472 test_pe_comp/test_shifter/n140
*473 test_pe_comp/test_shifter/U162
*474 test_pe_comp/test_shifter/U50
*475 test_pe_comp/n292
*476 test_pe_comp/test_shifter/U8
*477 test_pe_comp/test_shifter/U5
*478 test_pe_comp/test_shifter/U1
*479 test_pe_comp/U15
*480 test_pe_comp/test_shifter/U145
*481 test_pe_comp/test_shifter/U142
*482 test_pe_comp/test_shifter/U138
*483 test_pe_comp/test_shifter/U72
*484 test_pe_comp/test_shifter/U54
*485 test_pe_comp/test_shifter/U46
*486 test_pe_comp/test_shifter/U38
*487 test_pe_comp/test_shifter/U34
*488 test_pe_comp/test_shifter/U160
*489 test_pe_comp/test_shifter/U152
*490 test_pe_comp/test_shifter/U150
*491 test_pe_comp/test_shifter/n141
*492 test_pe_comp/test_shifter/U71
*493 test_pe_comp/shift_res\[8\]
*494 test_pe_comp/U279
*495 test_pe_comp/test_shifter/n142
*496 test_pe_comp/test_shifter/U63
*497 test_pe_comp/test_shifter/U62
*498 test_pe_comp/test_shifter/n138
*499 test_pe_comp/test_shifter/U161
*500 test_pe_comp/test_shifter/n139
*501 test_pe_comp/test_shifter/U159
*502 test_pe_comp/shift_res\[6\]
*503 test_pe_comp/U263
*504 test_pe_comp/test_shifter/n137
*505 test_pe_comp/test_shifter/U93
*506 test_pe_comp/test_shifter/U89
*507 test_pe_comp/test_shifter/n136
*508 test_pe_comp/test_shifter/U92
*509 test_pe_comp/test_shifter/n133
*510 test_pe_comp/test_shifter/U153
*511 test_pe_comp/test_shifter/U144
*512 test_pe_comp/test_shifter/U143
*513 test_pe_comp/test_shifter/n134
*514 test_pe_comp/test_shifter/U120
*515 test_pe_comp/test_shifter/U119
*516 test_pe_comp/test_shifter/n135
*517 test_pe_comp/test_shifter/U82
*518 test_pe_comp/test_shifter/U78
*519 test_pe_comp/test_shifter/n131
*520 test_pe_comp/test_shifter/U158
*521 test_pe_comp/test_shifter/n132
*522 test_pe_comp/shift_res\[5\]
*523 test_pe_comp/U255
*524 test_pe_comp/test_shifter/n129
*525 test_pe_comp/test_shifter/U155
*526 test_pe_comp/test_shifter/n130
*527 test_pe_comp/test_shifter/U136
*528 test_pe_comp/test_shifter/U100
*529 test_pe_comp/test_shifter/U56
*530 test_pe_comp/test_shifter/U55
*531 test_pe_comp/test_shifter/n128
*532 test_pe_comp/test_shifter/U128
*533 test_pe_comp/test_shifter/U111
*534 test_pe_comp/test_shifter/U75
*535 test_pe_comp/test_shifter/n124
*536 test_pe_comp/test_shifter/U77
*537 test_pe_comp/test_shifter/U76
*538 test_pe_comp/test_shifter/n125
*539 test_pe_comp/test_shifter/U127
*540 test_pe_comp/test_shifter/U115
*541 test_pe_comp/test_shifter/U58
*542 test_pe_comp/test_shifter/U30
*543 test_pe_comp/test_shifter/U19
*544 test_pe_comp/test_shifter/n126
*545 test_pe_comp/test_shifter/U126
*546 test_pe_comp/test_shifter/n121
*547 test_pe_comp/test_shifter/n122
*548 test_pe_comp/test_shifter/U117
*549 test_pe_comp/test_shifter/U116
*550 test_pe_comp/test_shifter/n123
*551 test_pe_comp/test_shifter/U109
*552 test_pe_comp/test_shifter/n118
*553 test_pe_comp/test_shifter/U151
*554 test_pe_comp/test_shifter/U57
*555 test_pe_comp/test_shifter/n119
*556 test_pe_comp/shift_res\[4\]
*557 test_pe_comp/U247
*558 test_pe_comp/test_shifter/n116
*559 test_pe_comp/test_shifter/U101
*560 test_pe_comp/test_shifter/n117
*561 test_pe_comp/test_shifter/U105
*562 test_pe_comp/test_shifter/U104
*563 test_pe_comp/shift_res\[2\]
*564 test_pe_comp/U231
*565 test_pe_comp/test_shifter/n114
*566 test_pe_comp/test_shifter/n115
*567 test_pe_comp/test_shifter/n113
*568 test_pe_comp/test_shifter/U147
*569 op_code\[6\]
*570 U17
*571 test_pe_comp/test_shifter/n112
*572 test_pe_comp/test_shifter/U35
*573 test_pe_comp/test_shifter/U4
*574 test_pe_comp/test_shifter/U140
*575 test_pe_comp/test_shifter/U95
*576 test_pe_comp/test_shifter/U79
*577 test_pe_comp/test_shifter/U61
*578 test_pe_comp/test_shifter/U51
*579 test_pe_comp/n305
*580 test_pe_comp/U27
*581 test_pe_comp/U58
*582 test_pe_comp/test_mult_add/U186
*583 test_pe_comp/test_mult_add/U468
*584 test_pe_comp/test_mult_add/U473
*585 test_pe_comp/test_mult_add/U465
*586 test_pe_comp/test_mult_add/U558
*587 test_pe_comp/test_mult_add/U89
*588 test_pe_comp/test_mult_add/U561
*589 op_b\[2\]
*590 test_opt_reg_file/U7
*591 U50
*592 test_pe_comp/test_shifter/n110
*593 test_pe_comp/test_shifter/U146
*594 test_pe_comp/test_shifter/n111
*595 test_pe_comp/shift_res\[1\]
*596 test_pe_comp/U223
*597 test_pe_comp/test_shifter/n109
*598 test_pe_comp/test_shifter/U129
*599 test_pe_comp/test_shifter/n108
*600 test_pe_comp/test_shifter/n106
*601 test_pe_comp/test_shifter/U80
*602 test_pe_comp/test_shifter/n107
*603 test_pe_comp/test_shifter/U91
*604 test_pe_comp/test_shifter/U90
*605 test_pe_comp/test_shifter/n105
*606 test_pe_comp/test_shifter/U47
*607 test_pe_comp/test_shifter/U102
*608 test_pe_comp/test_shifter/U81
*609 test_pe_comp/test_shifter/n103
*610 test_pe_comp/test_shifter/U52
*611 test_pe_comp/test_shifter/U40
*612 test_pe_comp/test_shifter/U26
*613 test_pe_comp/test_shifter/U20
*614 test_pe_comp/test_shifter/U6
*615 test_pe_comp/test_shifter/U141
*616 test_pe_comp/test_shifter/U132
*617 test_pe_comp/test_shifter/U122
*618 test_pe_comp/test_shifter/U112
*619 test_pe_comp/test_shifter/U96
*620 test_pe_comp/test_shifter/U83
*621 test_pe_comp/test_shifter/U67
*622 test_pe_comp/test_shifter/U64
*623 test_pe_comp/shift_res\[0\]
*624 test_pe_comp/U215
*625 test_pe_comp/test_shifter/n102
*626 test_pe_comp/test_shifter/U137
*627 test_pe_comp/test_shifter/n104
*628 test_pe_comp/test_shifter/n101
*629 test_pe_comp/test_shifter/U139
*630 test_pe_comp/test_shifter/U135
*631 test_pe_comp/test_shifter/U17
*632 test_pe_comp/shift_res\[15\]
*633 test_pe_comp/U335
*634 test_pe_comp/test_shifter/n100
*635 test_pe_comp/test_shifter/n98
*636 test_pe_comp/test_shifter/U44
*637 test_pe_comp/test_shifter/U36
*638 test_pe_comp/test_shifter/n99
*639 test_pe_comp/test_shifter/U110
*640 test_pe_comp/test_shifter/U45
*641 test_pe_comp/test_shifter/U33
*642 op_a\[15\]
*643 test_opt_reg_a/U5
*644 test_pe_comp/U49
*645 test_pe_comp/test_shifter/n97
*646 test_pe_comp/test_shifter/U131
*647 test_pe_comp/test_shifter/n96
*648 test_pe_comp/test_shifter/n95
*649 test_pe_comp/test_shifter/n94
*650 test_pe_comp/test_shifter/U70
*651 test_pe_comp/test_shifter/n93
*652 test_pe_comp/test_shifter/U29
*653 test_pe_comp/test_shifter/n91
*654 test_pe_comp/test_shifter/U134
*655 test_pe_comp/test_shifter/n92
*656 test_pe_comp/test_shifter/U114
*657 test_pe_comp/test_shifter/n89
*658 test_pe_comp/test_shifter/U133
*659 test_pe_comp/test_shifter/n90
*660 op_a\[1\]
*661 test_opt_reg_a/U8
*662 test_pe_comp/U384
*663 op_a\[14\]
*664 test_opt_reg_a/U21
*665 test_pe_comp/U172
*666 test_pe_comp/test_shifter/n88
*667 test_pe_comp/test_shifter/U39
*668 test_pe_comp/test_shifter/U27
*669 test_pe_comp/test_shifter/U21
*670 test_pe_comp/test_shifter/U10
*671 test_pe_comp/test_shifter/U7
*672 test_pe_comp/test_shifter/U121
*673 test_pe_comp/test_shifter/U113
*674 test_pe_comp/test_shifter/U97
*675 test_pe_comp/test_shifter/U84
*676 test_pe_comp/test_shifter/U68
*677 test_pe_comp/test_shifter/U65
*678 test_pe_comp/test_shifter/U41
*679 op_a\[0\]
*680 test_opt_reg_a/U7
*681 test_pe_comp/U52
*682 test_pe_comp/GEN_ADD_0__full_add/U16
*683 test_pe_comp/U219
*684 test_pe_comp/U207
*685 test_pe_comp/U22
*686 test_pe_comp/test_shifter/n84
*687 test_pe_comp/test_shifter/U106
*688 test_pe_comp/test_shifter/U53
*689 test_pe_comp/test_shifter/n85
*690 test_pe_comp/test_shifter/U99
*691 test_pe_comp/shift_res\[14\]
*692 test_pe_comp/U327
*693 test_pe_comp/test_shifter/n83
*694 test_pe_comp/test_shifter/n82
*695 test_pe_comp/test_shifter/n80
*696 test_pe_comp/test_shifter/n79
*697 test_pe_comp/test_shifter/U125
*698 test_pe_comp/test_shifter/n78
*699 test_pe_comp/test_shifter/U25
*700 test_pe_comp/test_shifter/U24
*701 test_pe_comp/test_shifter/n76
*702 test_pe_comp/test_shifter/U28
*703 test_pe_comp/test_shifter/n72
*704 test_pe_comp/test_shifter/U124
*705 test_pe_comp/test_shifter/n73
*706 test_pe_comp/test_shifter/U123
*707 test_pe_comp/test_shifter/n74
*708 test_pe_comp/test_shifter/U11
*709 op_a\[13\]
*710 test_pe_comp/U378
*711 test_opt_reg_a/U20
*712 test_pe_comp/test_mult_add/U52
*713 test_pe_comp/test_mult_add/U14
*714 test_pe_comp/test_mult_add/U10
*715 test_pe_comp/test_shifter/n71
*716 test_pe_comp/test_shifter/n70
*717 op_a\[2\]
*718 test_opt_reg_a/U9
*719 test_pe_comp/U55
*720 test_pe_comp/test_shifter/n68
*721 test_pe_comp/test_shifter/n69
*722 test_pe_comp/shift_res\[13\]
*723 test_pe_comp/U319
*724 test_pe_comp/test_shifter/n66
*725 test_pe_comp/test_shifter/n65
*726 test_pe_comp/test_shifter/n64
*727 test_pe_comp/test_shifter/U88
*728 test_pe_comp/test_shifter/n62
*729 test_pe_comp/test_shifter/U87
*730 test_pe_comp/test_shifter/U86
*731 test_pe_comp/test_shifter/n63
*732 test_pe_comp/test_shifter/U98
*733 test_pe_comp/test_shifter/n60
*734 test_pe_comp/test_shifter/n61
*735 op_a\[3\]
*736 test_opt_reg_a/U10
*737 test_pe_comp/U59
*738 op_a\[12\]
*739 test_opt_reg_a/U19
*740 test_pe_comp/U379
*741 test_pe_comp/test_shifter/n59
*742 test_pe_comp/test_shifter/U74
*743 test_pe_comp/shift_res\[12\]
*744 test_pe_comp/test_shifter/U107
*745 test_pe_comp/U311
*746 test_pe_comp/test_shifter/n58
*747 test_pe_comp/test_shifter/U103
*748 test_pe_comp/test_shifter/n57
*749 test_pe_comp/test_shifter/n56
*750 test_pe_comp/test_shifter/n55
*751 test_pe_comp/test_shifter/n54
*752 test_pe_comp/shift_res\[11\]
*753 test_pe_comp/U303
*754 test_pe_comp/test_shifter/n53
*755 test_pe_comp/test_shifter/n52
*756 test_pe_comp/test_shifter/n51
*757 test_pe_comp/test_shifter/U43
*758 test_pe_comp/test_shifter/n50
*759 test_pe_comp/test_shifter/n49
*760 test_pe_comp/test_shifter/U85
*761 test_pe_comp/test_shifter/n47
*762 test_pe_comp/test_shifter/n48
*763 op_a\[5\]
*764 test_opt_reg_a/U12
*765 test_pe_comp/U65
*766 op_a\[10\]
*767 test_opt_reg_a/U17
*768 test_pe_comp/U383
*769 test_pe_comp/test_mult_add/U125
*770 test_pe_comp/test_mult_add/U22
*771 test_pe_comp/test_mult_add/U20
*772 op_a\[11\]
*773 test_opt_reg_a/U18
*774 test_pe_comp/U117
*775 op_a\[4\]
*776 test_pe_comp/GEN_ADD_0__full_add/U12
*777 test_opt_reg_a/U22
*778 test_pe_comp/U373
*779 test_pe_comp/test_mult_add/U381
*780 test_pe_comp/test_mult_add/U93
*781 test_pe_comp/test_mult_add/U91
*782 test_pe_comp/test_shifter/n46
*783 test_pe_comp/test_shifter/U14
*784 test_pe_comp/test_shifter/U12
*785 test_pe_comp/shift_res\[9\]
*786 test_pe_comp/U287
*787 test_pe_comp/test_shifter/n45
*788 test_pe_comp/test_shifter/n44
*789 test_pe_comp/test_shifter/n43
*790 test_pe_comp/test_shifter/n42
*791 test_pe_comp/test_shifter/n40
*792 test_pe_comp/test_shifter/U18
*793 test_pe_comp/test_shifter/n41
*794 test_pe_comp/test_shifter/n38
*795 test_pe_comp/test_shifter/U66
*796 test_pe_comp/test_shifter/n39
*797 test_pe_comp/test_shifter/n37
*798 test_pe_comp/test_shifter/U69
*799 test_pe_comp/test_shifter/n35
*800 test_pe_comp/test_shifter/n36
*801 op_a\[7\]
*802 test_opt_reg_a/U14
*803 test_pe_comp/U381
*804 op_a\[8\]
*805 test_opt_reg_a/U15
*806 test_pe_comp/U75
*807 op_a\[6\]
*808 test_opt_reg_a/U13
*809 test_pe_comp/U382
*810 op_a\[9\]
*811 test_opt_reg_a/U16
*812 test_pe_comp/U380
*813 test_pe_comp/test_mult_add/U18
*814 test_pe_comp/test_shifter/n34
*815 test_pe_comp/test_shifter/U32
*816 test_pe_comp/test_shifter/n33
*817 test_pe_comp/test_shifter/n31
*818 test_pe_comp/test_shifter/U22
*819 test_pe_comp/test_shifter/n32
*820 test_pe_comp/test_shifter/U42
*821 test_pe_comp/test_shifter/n30
*822 test_pe_comp/test_shifter/n29
*823 test_pe_comp/shift_res\[7\]
*824 test_pe_comp/U271
*825 test_pe_comp/test_shifter/n28
*826 test_pe_comp/test_shifter/n27
*827 test_pe_comp/test_shifter/n25
*828 test_pe_comp/test_shifter/n26
*829 test_pe_comp/test_shifter/n23
*830 test_pe_comp/test_shifter/n24
*831 test_pe_comp/test_shifter/n22
*832 test_pe_comp/test_shifter/U59
*833 test_pe_comp/test_shifter/n20
*834 test_pe_comp/test_shifter/n21
*835 test_pe_comp/test_shifter/n19
*836 test_pe_comp/test_shifter/U60
*837 test_pe_comp/test_shifter/n17
*838 test_pe_comp/test_shifter/n14
*839 test_pe_comp/test_shifter/n15
*840 test_pe_comp/shift_res\[3\]
*841 test_pe_comp/U239
*842 test_pe_comp/test_shifter/n16
*843 test_pe_comp/test_shifter/n13
*844 op_b\[0\]
*845 test_opt_reg_file/U6
*846 U49
*847 test_pe_comp/test_shifter/n12
*848 test_pe_comp/test_shifter/U31
*849 test_pe_comp/test_shifter/n10
*850 test_pe_comp/test_shifter/n11
*851 test_pe_comp/test_shifter/n8
*852 test_pe_comp/test_shifter/n9
*853 test_pe_comp/test_shifter/n7
*854 test_pe_comp/test_shifter/U23
*855 test_pe_comp/test_shifter/n5
*856 test_pe_comp/test_shifter/U3
*857 test_pe_comp/test_shifter/U9
*858 test_pe_comp/test_shifter/n6
*859 test_pe_comp/test_shifter/U2
*860 test_pe_comp/test_shifter/n3
*861 test_pe_comp/test_shifter/n4
*862 test_pe_comp/test_shifter/n1
*863 test_pe_comp/test_shifter/n2
*864 test_pe_comp/test_mult_add/n753
*865 test_pe_comp/test_mult_add/U662
*866 test_pe_comp/test_mult_add/U659
*867 test_pe_comp/test_mult_add/U626
*868 test_pe_comp/test_mult_add/U46
*869 test_pe_comp/test_mult_add/n752
*870 test_pe_comp/test_mult_add/U658
*871 test_pe_comp/test_mult_add/n751
*872 test_pe_comp/test_mult_add/U661
*873 test_pe_comp/mult_c_out
*874 test_pe_comp/U189
*875 test_pe_comp/test_mult_add/n750
*876 test_pe_comp/test_mult_add/n749
*877 test_pe_comp/test_mult_add/U660
*878 test_pe_comp/test_mult_add/n748
*879 test_pe_comp/test_mult_add/U627
*880 test_pe_comp/test_mult_add/n747
*881 test_pe_comp/test_mult_add/U45
*882 test_pe_comp/test_mult_add/n744
*883 test_pe_comp/test_mult_add/U2
*884 test_pe_comp/test_mult_add/U12
*885 test_pe_comp/test_mult_add/U622
*886 test_pe_comp/test_mult_add/U619
*887 test_pe_comp/test_mult_add/U265
*888 test_pe_comp/test_mult_add/U163
*889 test_pe_comp/test_mult_add/U70
*890 test_pe_comp/test_mult_add/U68
*891 test_pe_comp/test_mult_add/n743
*892 test_pe_comp/test_mult_add/U3
*893 test_pe_comp/test_mult_add/U37
*894 test_pe_comp/test_mult_add/U33
*895 test_pe_comp/test_mult_add/U23
*896 test_pe_comp/test_mult_add/U113
*897 test_pe_comp/test_mult_add/U104
*898 test_pe_comp/test_mult_add/U101
*899 test_pe_comp/test_mult_add/U97
*900 test_pe_comp/test_mult_add/U67
*901 test_pe_comp/test_mult_add/U50
*902 test_pe_comp/test_mult_add/U43
*903 test_pe_comp/test_mult_add/U294
*904 test_pe_comp/test_mult_add/U209
*905 test_pe_comp/test_mult_add/U200
*906 test_pe_comp/test_mult_add/U197
*907 test_pe_comp/test_mult_add/U189
*908 test_pe_comp/test_mult_add/U172
*909 test_pe_comp/test_mult_add/U156
*910 test_pe_comp/test_mult_add/n741
*911 test_pe_comp/test_mult_add/U657
*912 test_pe_comp/test_mult_add/U559
*913 test_pe_comp/test_mult_add/n740
*914 test_pe_comp/test_mult_add/U656
*915 op_c\[0\]
*916 test_pe_comp/GEN_ADD_1__full_add/U16
*917 test_pe_comp/U175
*918 test_pe_comp/U206
*919 test_opt_reg_c/U6
*920 test_pe_comp/mult_res\[0\]
*921 test_pe_comp/U216
*922 test_pe_comp/test_mult_add/n739
*923 op_c\[1\]
*924 test_pe_comp/GEN_ADD_1__full_add/U15
*925 test_pe_comp/U176
*926 test_opt_reg_c/U7
*927 test_pe_comp/U209
*928 test_pe_comp/test_mult_add/n738
*929 test_pe_comp/test_mult_add/U655
*930 test_pe_comp/mult_res\[1\]
*931 test_pe_comp/U224
*932 test_pe_comp/test_mult_add/n737
*933 test_pe_comp/test_mult_add/U565
*934 op_c\[2\]
*935 test_pe_comp/GEN_ADD_1__full_add/U14
*936 test_pe_comp/U174
*937 test_pe_comp/U173
*938 test_opt_reg_c/U8
*939 test_pe_comp/test_mult_add/n735
*940 test_pe_comp/test_mult_add/U654
*941 test_pe_comp/mult_res\[2\]
*942 test_pe_comp/U232
*943 test_pe_comp/test_mult_add/n734
*944 test_pe_comp/test_mult_add/U569
*945 test_pe_comp/test_mult_add/n736
*946 test_pe_comp/test_mult_add/U557
*947 test_pe_comp/test_mult_add/n732
*948 test_pe_comp/test_mult_add/U653
*949 test_pe_comp/mult_res\[3\]
*950 test_pe_comp/U240
*951 test_pe_comp/test_mult_add/n731
*952 test_pe_comp/test_mult_add/U573
*953 test_pe_comp/test_mult_add/n733
*954 test_pe_comp/test_mult_add/U556
*955 test_pe_comp/test_mult_add/n729
*956 test_pe_comp/test_mult_add/U652
*957 test_pe_comp/mult_res\[4\]
*958 test_pe_comp/U248
*959 test_pe_comp/test_mult_add/n728
*960 test_pe_comp/test_mult_add/U577
*961 test_pe_comp/test_mult_add/n730
*962 test_pe_comp/test_mult_add/U555
*963 test_pe_comp/test_mult_add/n726
*964 test_pe_comp/test_mult_add/U651
*965 test_pe_comp/mult_res\[5\]
*966 test_pe_comp/U256
*967 test_pe_comp/test_mult_add/n725
*968 test_pe_comp/test_mult_add/U581
*969 test_pe_comp/test_mult_add/n727
*970 test_pe_comp/test_mult_add/U554
*971 test_pe_comp/test_mult_add/n723
*972 test_pe_comp/test_mult_add/U650
*973 test_pe_comp/mult_res\[6\]
*974 test_pe_comp/U264
*975 test_pe_comp/test_mult_add/n722
*976 test_pe_comp/test_mult_add/U585
*977 test_pe_comp/test_mult_add/n724
*978 test_pe_comp/test_mult_add/U553
*979 test_pe_comp/test_mult_add/n720
*980 test_pe_comp/test_mult_add/U649
*981 test_pe_comp/mult_res\[7\]
*982 test_pe_comp/U272
*983 test_pe_comp/test_mult_add/n719
*984 test_pe_comp/test_mult_add/U589
*985 test_pe_comp/test_mult_add/n721
*986 test_pe_comp/test_mult_add/U552
*987 test_pe_comp/test_mult_add/n717
*988 test_pe_comp/test_mult_add/U648
*989 test_pe_comp/mult_res\[8\]
*990 test_pe_comp/U280
*991 test_pe_comp/test_mult_add/n716
*992 test_pe_comp/test_mult_add/U593
*993 test_pe_comp/test_mult_add/n718
*994 test_pe_comp/test_mult_add/U551
*995 test_pe_comp/test_mult_add/n714
*996 test_pe_comp/test_mult_add/U647
*997 test_pe_comp/mult_res\[9\]
*998 test_pe_comp/U288
*999 test_pe_comp/U221
*1000 test_pe_comp/test_mult_add/n713
*1001 test_pe_comp/test_mult_add/U597
*1002 test_pe_comp/test_mult_add/n715
*1003 test_pe_comp/test_mult_add/U550
*1004 test_pe_comp/test_mult_add/n711
*1005 test_pe_comp/test_mult_add/U646
*1006 test_pe_comp/mult_res\[10\]
*1007 test_pe_comp/U296
*1008 test_pe_comp/U229
*1009 test_pe_comp/test_mult_add/n710
*1010 test_pe_comp/test_mult_add/U601
*1011 test_pe_comp/test_mult_add/n712
*1012 test_pe_comp/test_mult_add/U549
*1013 test_pe_comp/test_mult_add/n708
*1014 test_pe_comp/test_mult_add/U645
*1015 test_pe_comp/mult_res\[11\]
*1016 test_pe_comp/U304
*1017 test_pe_comp/U237
*1018 test_pe_comp/test_mult_add/n707
*1019 test_pe_comp/test_mult_add/U605
*1020 test_pe_comp/test_mult_add/n709
*1021 test_pe_comp/test_mult_add/U548
*1022 test_pe_comp/test_mult_add/n705
*1023 test_pe_comp/test_mult_add/U644
*1024 test_pe_comp/mult_res\[12\]
*1025 test_pe_comp/U312
*1026 test_pe_comp/U245
*1027 test_pe_comp/test_mult_add/n704
*1028 test_pe_comp/test_mult_add/U609
*1029 test_pe_comp/test_mult_add/n706
*1030 test_pe_comp/test_mult_add/U547
*1031 test_pe_comp/test_mult_add/n702
*1032 test_pe_comp/test_mult_add/U643
*1033 test_pe_comp/mult_res\[13\]
*1034 test_pe_comp/U320
*1035 test_pe_comp/U253
*1036 test_pe_comp/test_mult_add/n701
*1037 test_pe_comp/test_mult_add/U613
*1038 test_pe_comp/test_mult_add/n703
*1039 test_pe_comp/test_mult_add/U546
*1040 test_pe_comp/test_mult_add/n699
*1041 test_pe_comp/test_mult_add/U642
*1042 test_pe_comp/mult_res\[14\]
*1043 test_pe_comp/U328
*1044 test_pe_comp/U261
*1045 test_pe_comp/test_mult_add/n698
*1046 test_pe_comp/test_mult_add/U617
*1047 test_pe_comp/test_mult_add/n700
*1048 test_pe_comp/test_mult_add/U545
*1049 test_pe_comp/test_mult_add/n696
*1050 test_pe_comp/test_mult_add/U641
*1051 test_pe_comp/mult_res\[15\]
*1052 test_pe_comp/U367
*1053 test_pe_comp/test_mult_add/n695
*1054 test_pe_comp/test_mult_add/U621
*1055 test_pe_comp/test_mult_add/n697
*1056 test_pe_comp/test_mult_add/U544
*1057 test_pe_comp/test_mult_add/n692
*1058 test_pe_comp/test_mult_add/U640
*1059 test_pe_comp/mult_res\[16\]
*1060 test_pe_comp/U277
*1061 test_pe_comp/U210
*1062 test_pe_comp/U119
*1063 test_pe_comp/test_mult_add/U102
*1064 test_pe_comp/test_mult_add/n694
*1065 test_pe_comp/test_mult_add/U480
*1066 test_pe_comp/test_mult_add/n689
*1067 test_pe_comp/test_mult_add/U639
*1068 test_pe_comp/test_mult_add/n693
*1069 test_pe_comp/mult_res\[17\]
*1070 test_pe_comp/U370
*1071 test_pe_comp/test_mult_add/n691
*1072 test_pe_comp/test_mult_add/U462
*1073 test_pe_comp/test_mult_add/n687
*1074 test_pe_comp/test_mult_add/U638
*1075 test_pe_comp/test_mult_add/n690
*1076 test_pe_comp/test_mult_add/U478
*1077 test_pe_comp/mult_res\[18\]
*1078 test_pe_comp/U371
*1079 test_pe_comp/test_mult_add/n686
*1080 test_pe_comp/test_mult_add/U625
*1081 test_pe_comp/test_mult_add/n688
*1082 test_pe_comp/test_mult_add/U461
*1083 test_pe_comp/test_mult_add/n683
*1084 test_pe_comp/test_mult_add/U637
*1085 test_pe_comp/mult_res\[19\]
*1086 test_pe_comp/U301
*1087 test_pe_comp/test_mult_add/n685
*1088 test_pe_comp/test_mult_add/U397
*1089 test_pe_comp/test_mult_add/n680
*1090 test_pe_comp/test_mult_add/U636
*1091 test_pe_comp/test_mult_add/n684
*1092 test_pe_comp/mult_res\[20\]
*1093 test_pe_comp/U372
*1094 test_pe_comp/test_mult_add/n682
*1095 test_pe_comp/test_mult_add/U377
*1096 test_pe_comp/test_mult_add/n677
*1097 test_pe_comp/test_mult_add/U635