*SPEF "1481-1998"
*DESIGN "test_pe"
*DATE "Thu Mar 14 06:44:46 2019"
*VENDOR "Synopsys, Inc."
*PROGRAM "icc_shell"
*VERSION "M-2016.12-SP2"
*DESIGN_FLOW "PIN_CAP NONE"
*DIVIDER /
*DELIMITER :
*BUS_DELIMITER [ ]
*T_UNIT 1 NS
*C_UNIT 1 FF
*R_UNIT 1 OHM
*L_UNIT 1 HENRY

*NAME_MAP
*1 cfg_d[0]
*2 VDD
*3 VSS
*4 cfg_d[8]
*5 cfg_d[7]
*6 cfg_d[6]
*7 cfg_d[5]
*8 cfg_d[4]
*9 cfg_d[3]
*10 cfg_d[2]
*11 cfg_d[1]
*12 cfg_d[16]
*13 cfg_d[15]
*14 cfg_d[14]
*15 cfg_d[13]
*16 cfg_d[12]
*17 cfg_d[11]
*18 cfg_d[10]
*19 cfg_d[9]
*20 cfg_d[24]
*21 cfg_d[23]
*22 cfg_d[22]
*23 cfg_d[21]
*24 cfg_d[20]
*25 cfg_d[19]
*26 cfg_d[18]
*27 cfg_d[17]
*28 cfg_a[0]
*29 cfg_d[31]
*30 cfg_d[30]
*31 cfg_d[29]
*32 cfg_d[28]
*33 cfg_d[27]
*34 cfg_d[26]
*35 cfg_d[25]
*36 data0[0]
*37 cfg_a[7]
*38 cfg_a[6]
*39 cfg_a[5]
*40 cfg_a[4]
*41 cfg_a[3]
*42 cfg_a[2]
*43 cfg_a[1]
*44 data0[8]
*45 data0[7]
*46 data0[6]
*47 data0[5]
*48 data0[4]
*49 data0[3]
*50 data0[2]
*51 data0[1]
*52 data1[0]
*53 data0[15]
*54 data0[14]
*55 data0[13]
*56 data0[12]
*57 data0[11]
*58 data0[10]
*59 data0[9]
*60 data1[8]
*61 data1[7]
*62 data1[6]
*63 data1[5]
*64 data1[4]
*65 data1[3]
*66 data1[2]
*67 data1[1]
*68 data2[0]
*69 data1[15]
*70 data1[14]
*71 data1[13]
*72 data1[12]
*73 data1[11]
*74 data1[10]
*75 data1[9]
*76 data2[8]
*77 data2[7]
*78 data2[6]
*79 data2[5]
*80 data2[4]
*81 data2[3]
*82 data2[2]
*83 data2[1]
*84 res[0]
*85 data2[15]
*86 data2[14]
*87 data2[13]
*88 data2[12]
*89 data2[11]
*90 data2[10]
*91 data2[9]
*92 res[8]
*93 res[7]
*94 res[6]
*95 res[5]
*96 res[4]
*97 res[3]
*98 res[2]
*99 res[1]
*100 read_data[0]
*101 res[15]
*102 res[14]
*103 res[13]
*104 res[12]
*105 res[11]
*106 res[10]
*107 res[9]
*108 read_data[8]
*109 read_data[7]
*110 read_data[6]
*111 read_data[5]
*112 read_data[4]
*113 read_data[3]
*114 read_data[2]
*115 read_data[1]
*116 read_data[16]
*117 read_data[15]
*118 read_data[14]
*119 read_data[13]
*120 read_data[12]
*121 read_data[11]
*122 read_data[10]
*123 read_data[9]
*124 read_data[24]
*125 read_data[23]
*126 read_data[22]
*127 read_data[21]
*128 read_data[20]
*129 read_data[19]
*130 read_data[18]
*131 read_data[17]
*132 clk
*133 read_data[31]
*134 read_data[30]
*135 read_data[29]
*136 read_data[28]
*137 read_data[27]
*138 read_data[26]
*139 read_data[25]
*140 res_p
*141 irq
*142 bit2
*143 bit1
*144 bit0
*145 cfg_en
*146 clk_en
*147 rst_n
*148 INVX8_LVT_G1B13I1
*149 clk_gate_op_code_reg/latch
*150 net790
*151 NBUFFX4_LVT_G2B1I1
*152 U307
*153 N31
*154 U309
*155 U347
*156 op_code_reg_0_
*157 test_debug_bit/U5
*158 test_debug_data/debug_val_reg_0_
*159 test_lut/GEN_LUT_0__lut_reg_0_
*160 test_opt_reg_f/U6
*161 test_opt_reg_e/U6
*162 test_opt_reg_d/U6
*163 test_opt_reg_c/U23
*164 test_opt_reg_a/U23
*165 test_debug_bit/n1
*166 test_debug_bit/U4
*167 test_debug_bit/n4
*168 test_debug_bit/U1
*169 read_data_debug_bit_0_
*170 test_debug_bit/U2
*171 test_debug_bit/debug_val_reg_0_
*172 U207
*173 n_6_net_
*174 U195
*175 irq_bit
*176 U311
*177 U55
*178 U3
*179 U1
*180 U2
*181 test_debug_data/net808
*182 test_debug_data/debug_val_reg_15_
*183 test_debug_data/debug_val_reg_7_
*184 test_debug_data/debug_val_reg_8_
*185 test_debug_data/debug_val_reg_9_
*186 test_debug_data/debug_val_reg_10_
*187 test_debug_data/debug_val_reg_11_
*188 test_debug_data/debug_val_reg_12_
*189 test_debug_data/debug_val_reg_13_
*190 test_debug_data/debug_val_reg_14_
*191 test_debug_data/clk_gate_debug_val_reg/latch
*192 test_debug_data/debug_val_reg_1_
*193 test_debug_data/debug_val_reg_2_
*194 test_debug_data/debug_val_reg_3_
*195 test_debug_data/debug_val_reg_4_
*196 test_debug_data/debug_val_reg_5_
*197 test_debug_data/debug_val_reg_6_
*198 n_5_net_
*199 U310
*200 irq_data
*201 test_debug_data/U20
*202 test_debug_data/n17
*203 test_debug_data/U19
*204 test_debug_data/n18
*205 test_debug_data/U10
*206 test_debug_data/n15
*207 test_debug_data/U14
*208 test_debug_data/n13
*209 test_debug_data/U18
*210 test_debug_data/n14
*211 test_debug_data/U16
*212 test_debug_data/n16
*213 test_debug_data/U12
*214 test_debug_data/n33
*215 test_debug_data/U17
*216 U43
*217 U42
*218 test_debug_data/n12
*219 test_debug_data/n22
*220 test_debug_data/U1
*221 test_debug_data/n32
*222 test_debug_data/U15
*223 U45
*224 U44
*225 test_debug_data/n11
*226 test_debug_data/n21
*227 test_debug_data/n34
*228 test_debug_data/U21
*229 test_debug_data/U13
*230 U39
*231 U38
*232 test_debug_data/n10
*233 test_debug_data/n20
*234 test_debug_data/n31
*235 test_debug_data/U11
*236 U41
*237 U40
*238 test_debug_data/n9
*239 test_debug_data/n19
*240 test_debug_data/n7
*241 test_debug_data/U5
*242 test_debug_data/n5
*243 test_debug_data/U9
*244 test_debug_data/n6
*245 test_debug_data/U7
*246 test_debug_data/n8
*247 test_debug_data/U3
*248 test_debug_data/n30
*249 test_debug_data/U8
*250 U52
*251 U50
*252 test_debug_data/n4
*253 test_debug_data/n26
*254 test_debug_data/n29
*255 test_debug_data/U24
*256 test_debug_data/U6
*257 U54
*258 U53
*259 test_debug_data/n3
*260 test_debug_data/n25
*261 test_debug_data/n28
*262 test_debug_data/U4
*263 U47
*264 U46
*265 test_debug_data/n2
*266 test_debug_data/n24
*267 test_debug_data/U23
*268 test_debug_data/n27
*269 test_debug_data/U22
*270 test_debug_data/U2
*271 U49
*272 U48
*273 test_debug_data/n1
*274 test_debug_data/n23
*275 read_data_debug_data\[0\]
*276 U212
*277 read_data_debug_data\[1\]
*278 U224
*279 test_lut/GEN_LUT_0__lut_reg_1_
*280 test_opt_reg_c/U24
*281 test_opt_reg_a/U24
*282 U348
*283 op_code_reg_1_
*284 read_data_debug_data\[2\]
*285 U228
*286 test_lut/GEN_LUT_0__lut_reg_2_
*287 test_opt_reg_c/U25
*288 test_opt_reg_a/U25
*289 U349
*290 op_code_reg_2_
*291 read_data_debug_data\[3\]
*292 U232
*293 test_lut/GEN_LUT_0__lut_reg_3_
*294 test_opt_reg_c/U26
*295 test_opt_reg_a/U26
*296 U350
*297 op_code_reg_3_
*298 read_data_debug_data\[4\]
*299 U236
*300 test_lut/GEN_LUT_0__lut_reg_4_
*301 test_opt_reg_c/U27
*302 test_opt_reg_a/U27
*303 U351
*304 op_code_reg_4_
*305 read_data_debug_data\[5\]
*306 U240
*307 test_lut/GEN_LUT_0__lut_reg_5_
*308 test_opt_reg_c/U28
*309 test_opt_reg_a/U28
*310 U352
*311 op_code_reg_5_
*312 read_data_debug_data\[6\]
*313 U244
*314 test_lut/GEN_LUT_0__lut_reg_6_
*315 test_opt_reg_c/U29
*316 test_opt_reg_a/U29
*317 U353
*318 op_code_reg_6_
*319 read_data_debug_data\[7\]
*320 U248
*321 test_lut/GEN_LUT_0__lut_reg_7_
*322 test_opt_reg_c/U30
*323 test_opt_reg_a/U30
*324 U354
*325 op_code_reg_7_
*326 read_data_debug_data\[8\]
*327 U252
*328 test_opt_reg_c/U31
*329 test_opt_reg_a/U31
*330 U355
*331 op_code_reg_8_
*332 read_data_debug_data\[9\]
*333 U256
*334 test_opt_reg_c/U32
*335 test_opt_reg_a/U32
*336 U356
*337 op_code_reg_9_
*338 read_data_debug_data\[10\]
*339 U260
*340 test_opt_reg_c/U33
*341 test_opt_reg_a/U33
*342 U357
*343 op_code_reg_10_
*344 read_data_debug_data\[11\]
*345 U264
*346 test_opt_reg_c/U34
*347 test_opt_reg_a/U34
*348 U358
*349 op_code_reg_11_
*350 read_data_debug_data\[12\]
*351 U268
*352 test_opt_reg_c/U35
*353 test_opt_reg_a/U35
*354 U359
*355 op_code_reg_12_
*356 read_data_debug_data\[13\]
*357 U272
*358 test_opt_reg_c/U36
*359 test_opt_reg_a/U36
*360 U360
*361 op_code_reg_13_
*362 read_data_debug_data\[14\]
*363 U276
*364 test_opt_reg_c/U37
*365 test_opt_reg_a/U37
*366 U361
*367 op_code_reg_14_
*368 read_data_debug_data\[15\]
*369 U280
*370 test_opt_reg_c/U38
*371 test_opt_reg_a/U38
*372 U362
*373 op_code_reg_15_
*374 test_lut/net826
*375 test_lut/clk_gate_GEN_LUT_0__lut_reg/latch
*376 test_lut/N4
*377 test_lut/U5
*378 test_lut/n6
*379 test_lut/U9
*380 test_lut/U6
*381 test_lut/n5
*382 test_lut/U7
*383 res_lut
*384 U301
*385 test_lut/n4
*386 test_lut/U8
*387 op_e_p
*388 test_opt_reg_e/U4
*389 read_data_lut\[0\]
*390 U220
*391 op_f_p
*392 test_opt_reg_f/U4
*393 op_d_p
*394 test_pe_comp/U203
*395 test_pe_comp/U200
*396 test_pe_comp/U198
*397 test_pe_comp/U83
*398 test_opt_reg_d/U4
*399 U345
*400 read_data_lut\[4\]
*401 U235
*402 read_data_lut\[5\]
*403 U239
*404 read_data_lut\[1\]
*405 U223
*406 read_data_lut\[2\]
*407 U227
*408 read_data_lut\[6\]
*409 U243
*410 read_data_lut\[7\]
*411 U247
*412 read_data_lut\[3\]
*413 U231
*414 U218
*415 U205
*416 U202
*417 U183
*418 U4
*419 test_lut/n3
*420 test_lut/U4
*421 U196
*422 U185
*423 U182
*424 test_lut/n2
*425 test_lut/U3
*426 U204
*427 U198
*428 U209
*429 U206
*430 U199
*431 U186
*432 U6
*433 U189
*434 U184
*435 U201
*436 U193
*437 test_lut/n1
*438 test_lut/U2
*439 U217
*440 U197
*441 U181
*442 U188
*443 U5
*444 U192
*445 U215
*446 test_pe_comp/shift_res\[10\]
*447 test_pe_comp/test_shifter/U164
*448 test_pe_comp/U295
*449 test_pe_comp/test_shifter/n147
*450 test_pe_comp/test_shifter/U163
*451 test_pe_comp/test_shifter/n148
*452 test_pe_comp/test_shifter/U149
*453 test_pe_comp/test_shifter/U148
*454 op_b\[3\]
*455 test_opt_reg_file/U8
*456 U24
*457 test_pe_comp/test_shifter/n144
*458 test_pe_comp/test_shifter/U157
*459 test_pe_comp/test_shifter/U156
*460 test_pe_comp/test_shifter/n145
*461 test_pe_comp/test_shifter/U154
*462 test_pe_comp/test_shifter/n143
*463 test_pe_comp/test_shifter/U130
*464 test_pe_comp/test_shifter/U118
*465 test_pe_comp/test_shifter/U94
*466 test_pe_comp/test_shifter/U73
*467 test_pe_comp/test_shifter/U49
*468 test_pe_comp/test_shifter/U48
*469 test_pe_comp/test_shifter/n140
*470 test_pe_comp/test_shifter/U162
*471 test_pe_comp/test_shifter/U50
*472 test_pe_comp/n292
*473 test_pe_comp/test_shifter/U8
*474 test_pe_comp/test_shifter/U5
*475 test_pe_comp/test_shifter/U4
*476 test_pe_comp/U15
*477 test_pe_comp/test_shifter/U145
*478 test_pe_comp/test_shifter/U142
*479 test_pe_comp/test_shifter/U138
*480 test_pe_comp/test_shifter/U72
*481 test_pe_comp/test_shifter/U54
*482 test_pe_comp/test_shifter/U46
*483 test_pe_comp/test_shifter/U38
*484 test_pe_comp/test_shifter/U34
*485 test_pe_comp/test_shifter/U160
*486 test_pe_comp/test_shifter/U152
*487 test_pe_comp/test_shifter/U150
*488 test_pe_comp/test_shifter/n141
*489 test_pe_comp/test_shifter/U71
*490 test_pe_comp/shift_res\[8\]
*491 test_pe_comp/U279
*492 test_pe_comp/test_shifter/n142
*493 test_pe_comp/test_shifter/U63
*494 test_pe_comp/test_shifter/U62
*495 test_pe_comp/test_shifter/n138
*496 test_pe_comp/test_shifter/U161
*497 test_pe_comp/test_shifter/n139
*498 test_pe_comp/test_shifter/U159
*499 test_pe_comp/shift_res\[6\]
*500 test_pe_comp/U263
*501 test_pe_comp/test_shifter/n137
*502 test_pe_comp/test_shifter/U93
*503 test_pe_comp/test_shifter/U89
*504 test_pe_comp/test_shifter/n136
*505 test_pe_comp/test_shifter/U92
*506 test_pe_comp/test_shifter/n133
*507 test_pe_comp/test_shifter/U153
*508 test_pe_comp/test_shifter/U144
*509 test_pe_comp/test_shifter/U143
*510 test_pe_comp/test_shifter/n134
*511 test_pe_comp/test_shifter/U120
*512 test_pe_comp/test_shifter/U119
*513 test_pe_comp/test_shifter/n135
*514 test_pe_comp/test_shifter/U82
*515 test_pe_comp/test_shifter/U78
*516 test_pe_comp/test_shifter/n131
*517 test_pe_comp/test_shifter/U158
*518 test_pe_comp/test_shifter/n132
*519 test_pe_comp/shift_res\[5\]
*520 test_pe_comp/U255
*521 test_pe_comp/test_shifter/n129
*522 test_pe_comp/test_shifter/U155
*523 test_pe_comp/test_shifter/n130
*524 test_pe_comp/test_shifter/U136
*525 test_pe_comp/test_shifter/U100
*526 test_pe_comp/test_shifter/U56
*527 test_pe_comp/test_shifter/U55
*528 test_pe_comp/test_shifter/n128
*529 test_pe_comp/test_shifter/U128
*530 test_pe_comp/test_shifter/U111
*531 test_pe_comp/test_shifter/U75
*532 test_pe_comp/test_shifter/n127
*533 test_pe_comp/test_shifter/U123
*534 test_pe_comp/test_shifter/U70
*535 test_pe_comp/test_shifter/U86
*536 test_pe_comp/test_shifter/U25
*537 test_pe_comp/test_shifter/U126
*538 test_pe_comp/test_shifter/U125
*539 test_pe_comp/test_shifter/U76
*540 test_pe_comp/test_shifter/U99
*541 test_pe_comp/test_shifter/U88
*542 test_pe_comp/test_shifter/U17
*543 test_pe_comp/test_shifter/U43
*544 test_pe_comp/test_shifter/U53
*545 test_pe_comp/test_shifter/U74
*546 test_pe_comp/test_shifter/U60
*547 test_pe_comp/test_shifter/U90
*548 test_pe_comp/test_shifter/U109
*549 test_pe_comp/test_shifter/U44
*550 test_pe_comp/test_shifter/U2
*551 test_pe_comp/test_shifter/n124
*552 test_pe_comp/test_shifter/U77
*553 test_pe_comp/test_shifter/n125
*554 test_pe_comp/test_shifter/U127
*555 test_pe_comp/test_shifter/U115
*556 test_pe_comp/test_shifter/U58
*557 test_pe_comp/test_shifter/U30
*558 test_pe_comp/test_shifter/U19
*559 test_pe_comp/test_shifter/n126
*560 test_pe_comp/test_shifter/n121
*561 test_pe_comp/test_shifter/n122
*562 test_pe_comp/test_shifter/U117
*563 test_pe_comp/test_shifter/U116
*564 test_pe_comp/test_shifter/n123
*565 test_pe_comp/test_shifter/n120
*566 test_pe_comp/test_shifter/U29
*567 test_pe_comp/test_shifter/U79
*568 test_pe_comp/test_shifter/U147
*569 test_pe_comp/test_shifter/U1
*570 test_pe_comp/test_shifter/n118
*571 test_pe_comp/test_shifter/U151
*572 test_pe_comp/test_shifter/U57
*573 test_pe_comp/test_shifter/n119
*574 test_pe_comp/shift_res\[4\]
*575 test_pe_comp/U247
*576 test_pe_comp/test_shifter/n116
*577 test_pe_comp/test_shifter/U101
*578 test_pe_comp/test_shifter/n117
*579 test_pe_comp/test_shifter/U105
*580 test_pe_comp/test_shifter/U104
*581 test_pe_comp/shift_res\[2\]
*582 test_pe_comp/U231
*583 test_pe_comp/test_shifter/n114
*584 test_pe_comp/test_shifter/n115
*585 test_pe_comp/test_shifter/n113
*586 op_code\[6\]
*587 test_pe_comp/U379
*588 test_pe_comp/test_mult_add/U182
*589 test_pe_comp/test_mult_add/U57
*590 test_pe_comp/test_mult_add/U23
*591 test_pe_comp/test_mult_add/U12
*592 test_pe_comp/test_shifter/n112
*593 test_pe_comp/test_shifter/U35
*594 test_pe_comp/test_shifter/U12
*595 test_pe_comp/test_shifter/U140
*596 test_pe_comp/test_shifter/U95
*597 test_pe_comp/test_shifter/U61
*598 test_pe_comp/test_shifter/U51
*599 test_pe_comp/n305
*600 test_pe_comp/test_mult_add/U605
*601 test_pe_comp/test_mult_add/U609
*602 test_pe_comp/test_mult_add/U613
*603 test_pe_comp/test_mult_add/U621
*604 test_pe_comp/test_mult_add/U617
*605 test_pe_comp/test_mult_add/U601
*606 test_pe_comp/test_mult_add/U186
*607 test_pe_comp/test_mult_add/U468
*608 test_pe_comp/test_mult_add/U470
*609 test_pe_comp/test_mult_add/U465
*610 test_pe_comp/test_mult_add/U89
*611 test_pe_comp/test_mult_add/U569
*612 test_pe_comp/test_mult_add/U585
*613 test_pe_comp/test_mult_add/U597
*614 test_pe_comp/test_mult_add/U573
*615 test_pe_comp/test_mult_add/U559
*616 test_pe_comp/test_mult_add/U589
*617 test_pe_comp/test_mult_add/U565
*618 test_pe_comp/test_mult_add/U581
*619 test_pe_comp/test_mult_add/U593
*620 test_pe_comp/test_mult_add/U577
*621 test_pe_comp/test_mult_add/U657
*622 test_pe_comp/test_shifter/U121
*623 test_pe_comp/test_shifter/U112
*624 test_pe_comp/U59
*625 test_pe_comp/U228
*626 test_pe_comp/U235
*627 test_pe_comp/U27
*628 test_pe_comp/U58
*629 test_pe_comp/GEN_ADD_0__full_add/U14
*630 op_b\[2\]
*631 test_opt_reg_file/U7
*632 U23
*633 test_pe_comp/test_shifter/n110
*634 test_pe_comp/test_shifter/U146
*635 test_pe_comp/test_shifter/n111
*636 test_pe_comp/shift_res\[1\]
*637 test_pe_comp/U223
*638 test_pe_comp/test_shifter/n109
*639 test_pe_comp/test_shifter/U129
*640 test_pe_comp/test_shifter/n108
*641 test_pe_comp/test_shifter/n106
*642 test_pe_comp/test_shifter/U80
*643 test_pe_comp/test_shifter/n107
*644 test_pe_comp/test_shifter/U91
*645 test_pe_comp/test_shifter/n105
*646 test_pe_comp/test_shifter/U47
*647 test_pe_comp/test_shifter/U102
*648 test_pe_comp/test_shifter/U81
*649 test_pe_comp/test_shifter/n103
*650 test_pe_comp/test_shifter/U52
*651 test_pe_comp/test_shifter/U40
*652 test_pe_comp/test_shifter/U26
*653 test_pe_comp/test_shifter/U20
*654 test_pe_comp/test_shifter/U6
*655 test_pe_comp/test_shifter/U141
*656 test_pe_comp/test_shifter/U132
*657 test_pe_comp/test_shifter/U122
*658 test_pe_comp/test_shifter/U96
*659 test_pe_comp/test_shifter/U83
*660 test_pe_comp/test_shifter/U67
*661 test_pe_comp/test_shifter/U64
*662 test_pe_comp/shift_res\[0\]
*663 test_pe_comp/U215
*664 test_pe_comp/test_shifter/n102
*665 test_pe_comp/test_shifter/U137
*666 test_pe_comp/test_shifter/n104
*667 test_pe_comp/test_shifter/n101
*668 test_pe_comp/test_shifter/U139
*669 test_pe_comp/test_shifter/U135
*670 test_pe_comp/shift_res\[15\]
*671 test_pe_comp/U335
*672 test_pe_comp/test_shifter/n100
*673 test_pe_comp/test_shifter/n98
*674 test_pe_comp/test_shifter/U36
*675 test_pe_comp/test_shifter/n99
*676 test_pe_comp/test_shifter/U110
*677 test_pe_comp/test_shifter/U45
*678 test_pe_comp/test_shifter/U33
*679 op_a\[15\]
*680 test_pe_comp/U49
*681 test_opt_reg_a/U5
*682 test_pe_comp/test_shifter/n97
*683 test_pe_comp/test_shifter/U131
*684 test_pe_comp/test_shifter/n96
*685 test_pe_comp/test_shifter/n95
*686 test_pe_comp/test_shifter/n94
*687 test_pe_comp/test_shifter/n93
*688 test_pe_comp/test_shifter/n91
*689 test_pe_comp/test_shifter/U134
*690 test_pe_comp/test_shifter/n92
*691 test_pe_comp/test_shifter/U114
*692 test_pe_comp/test_shifter/n89
*693 test_pe_comp/test_shifter/U133
*694 test_pe_comp/test_shifter/n90
*695 op_a\[1\]
*696 test_opt_reg_a/U8
*697 test_pe_comp/U54
*698 op_a\[14\]
*699 test_pe_comp/U214
*700 test_opt_reg_a/U21
*701 test_pe_comp/test_shifter/n88
*702 test_pe_comp/test_shifter/U39
*703 test_pe_comp/test_shifter/U27
*704 test_pe_comp/test_shifter/U21
*705 test_pe_comp/test_shifter/U10
*706 test_pe_comp/test_shifter/U7
*707 test_pe_comp/test_shifter/U113
*708 test_pe_comp/test_shifter/U97
*709 test_pe_comp/test_shifter/U84
*710 test_pe_comp/test_shifter/U68
*711 test_pe_comp/test_shifter/U65
*712 test_pe_comp/test_shifter/U41
*713 op_a\[0\]
*714 test_opt_reg_a/U7
*715 test_pe_comp/U52
*716 test_pe_comp/test_mult_add/U558
*717 test_pe_comp/GEN_ADD_0__full_add/U16
*718 test_pe_comp/U219
*719 test_pe_comp/U207
*720 test_pe_comp/U22
*721 test_pe_comp/test_shifter/n84
*722 test_pe_comp/test_shifter/U106
*723 test_pe_comp/test_shifter/n85
*724 test_pe_comp/shift_res\[14\]
*725 test_pe_comp/U327
*726 test_pe_comp/test_shifter/n83
*727 test_pe_comp/test_shifter/n82
*728 test_pe_comp/test_shifter/n80
*729 test_pe_comp/test_shifter/n79
*730 test_pe_comp/test_shifter/n78
*731 test_pe_comp/test_shifter/U24
*732 test_pe_comp/test_shifter/n76
*733 test_pe_comp/test_shifter/U28
*734 test_pe_comp/test_shifter/n72
*735 test_pe_comp/test_shifter/U124
*736 test_pe_comp/test_shifter/n73
*737 test_pe_comp/test_shifter/n74
*738 test_pe_comp/test_shifter/U11
*739 op_a\[13\]
*740 test_pe_comp/U209
*741 test_opt_reg_a/U20
*742 test_pe_comp/test_shifter/n71
*743 test_pe_comp/test_shifter/n70
*744 op_a\[2\]
*745 test_opt_reg_a/U9
*746 test_pe_comp/test_shifter/n68
*747 test_pe_comp/test_shifter/n69
*748 test_pe_comp/shift_res\[13\]
*749 test_pe_comp/U319
*750 test_pe_comp/test_shifter/n66
*751 test_pe_comp/test_shifter/n65
*752 test_pe_comp/test_shifter/n64
*753 test_pe_comp/test_shifter/n62
*754 test_pe_comp/test_shifter/U87
*755 test_pe_comp/test_shifter/n63
*756 test_pe_comp/test_shifter/U98
*757 test_pe_comp/test_shifter/n60
*758 test_pe_comp/test_shifter/n61
*759 op_a\[3\]
*760 test_opt_reg_a/U10
*761 test_pe_comp/U62
*762 op_a\[12\]
*763 test_pe_comp/U315
*764 test_pe_comp/U308
*765 test_pe_comp/U64
*766 test_pe_comp/U206
*767 test_opt_reg_a/U19
*768 test_pe_comp/test_mult_add/U10
*769 test_pe_comp/test_mult_add/U8
*770 test_pe_comp/GEN_ADD_0__full_add/U4
*771 test_pe_comp/test_shifter/n59
*772 test_pe_comp/shift_res\[12\]
*773 test_pe_comp/test_shifter/U107
*774 test_pe_comp/U311
*775 test_pe_comp/test_shifter/n58
*776 test_pe_comp/test_shifter/U103
*777 test_pe_comp/test_shifter/n57
*778 test_pe_comp/test_shifter/n56
*779 test_pe_comp/test_shifter/n55
*780 test_pe_comp/test_shifter/n54
*781 test_pe_comp/shift_res\[11\]
*782 test_pe_comp/U303
*783 test_pe_comp/test_shifter/n53
*784 test_pe_comp/test_shifter/n52
*785 test_pe_comp/test_shifter/n51
*786 test_pe_comp/test_shifter/n50
*787 test_pe_comp/test_shifter/n49
*788 test_pe_comp/test_shifter/U85
*789 test_pe_comp/test_shifter/n47
*790 test_pe_comp/test_shifter/n48
*791 op_a\[5\]
*792 test_opt_reg_a/U12
*793 test_pe_comp/U68
*794 op_a\[10\]
*795 test_pe_comp/GEN_ADD_0__full_add/U6
*796 test_pe_comp/U299
*797 test_pe_comp/U292
*798 test_pe_comp/U53
*799 test_opt_reg_a/U39
*800 test_pe_comp/U171
*801 test_pe_comp/test_mult_add/U125
*802 test_pe_comp/test_mult_add/U22
*803 test_pe_comp/test_mult_add/U20
*804 op_a\[11\]
*805 test_pe_comp/U172
*806 test_opt_reg_a/U18
*807 op_a\[4\]
*808 test_opt_reg_a/U11
*809 test_pe_comp/U65
*810 test_pe_comp/test_shifter/n46
*811 test_pe_comp/test_shifter/U15
*812 test_pe_comp/test_shifter/U14
*813 test_pe_comp/shift_res\[9\]
*814 test_pe_comp/U287
*815 test_pe_comp/test_shifter/n45
*816 test_pe_comp/test_shifter/n44
*817 test_pe_comp/test_shifter/n43
*818 test_pe_comp/test_shifter/n42
*819 test_pe_comp/test_shifter/n40
*820 test_pe_comp/test_shifter/U18
*821 test_pe_comp/test_shifter/n41
*822 test_pe_comp/test_shifter/n38
*823 test_pe_comp/test_shifter/U66
*824 test_pe_comp/test_shifter/n39
*825 test_pe_comp/test_shifter/n37
*826 test_pe_comp/test_shifter/U69
*827 test_pe_comp/test_shifter/n35
*828 test_pe_comp/test_shifter/n36
*829 op_a\[7\]
*830 test_opt_reg_a/U14
*831 test_pe_comp/U102
*832 op_a\[8\]
*833 test_opt_reg_a/U15
*834 test_pe_comp/U117
*835 op_a\[6\]
*836 test_opt_reg_a/U13
*837 test_pe_comp/U75
*838 op_a\[9\]
*839 test_pe_comp/U291
*840 test_pe_comp/U284
*841 test_pe_comp/U50
*842 test_opt_reg_a/U16
*843 test_pe_comp/U166
*844 test_pe_comp/test_mult_add/U18
*845 test_pe_comp/GEN_ADD_0__full_add/U7
*846 test_pe_comp/test_shifter/n34
*847 test_pe_comp/test_shifter/U32
*848 test_pe_comp/test_shifter/n33
*849 test_pe_comp/test_shifter/n31
*850 test_pe_comp/test_shifter/U22
*851 test_pe_comp/test_shifter/n32
*852 test_pe_comp/test_shifter/U42
*853 test_pe_comp/test_shifter/n30
*854 test_pe_comp/test_shifter/n29
*855 test_pe_comp/shift_res\[7\]
*856 test_pe_comp/U271
*857 test_pe_comp/test_shifter/n28
*858 test_pe_comp/test_shifter/n27
*859 test_pe_comp/test_shifter/n25
*860 test_pe_comp/test_shifter/n26
*861 test_pe_comp/test_shifter/n23
*862 test_pe_comp/test_shifter/n24
*863 test_pe_comp/test_shifter/n22
*864 test_pe_comp/test_shifter/U59
*865 test_pe_comp/test_shifter/n20
*866 test_pe_comp/test_shifter/n21
*867 test_pe_comp/test_shifter/n19
*868 test_pe_comp/test_shifter/n17
*869 test_pe_comp/test_shifter/n14
*870 test_pe_comp/test_shifter/n15
*871 test_pe_comp/shift_res\[3\]
*872 test_pe_comp/U239
*873 test_pe_comp/test_shifter/n16
*874 test_pe_comp/test_shifter/n13
*875 op_b\[0\]
*876 test_opt_reg_file/U6
*877 U22
*878 test_pe_comp/test_shifter/n12
*879 test_pe_comp/test_shifter/U31
*880 test_pe_comp/test_shifter/n10
*881 test_pe_comp/test_shifter/n11
*882 test_pe_comp/test_shifter/n8
*883 test_pe_comp/test_shifter/n9
*884 test_pe_comp/test_shifter/n7
*885 test_pe_comp/test_shifter/U23
*886 test_pe_comp/test_shifter/n5
*887 test_pe_comp/test_shifter/U13
*888 test_pe_comp/test_shifter/U3
*889 test_pe_comp/test_shifter/n6
*890 test_pe_comp/test_shifter/U9
*891 test_pe_comp/test_shifter/n3
*892 test_pe_comp/test_shifter/n4
*893 test_pe_comp/test_shifter/n1
*894 test_pe_comp/test_shifter/n2
*895 test_pe_comp/test_mult_add/n753
*896 test_pe_comp/test_mult_add/U662
*897 test_pe_comp/test_mult_add/U659
*898 test_pe_comp/test_mult_add/U626
*899 test_pe_comp/test_mult_add/U46
*900 test_pe_comp/test_mult_add/n752
*901 test_pe_comp/test_mult_add/U658
*902 test_pe_comp/test_mult_add/n751
*903 test_pe_comp/test_mult_add/U661
*904 test_pe_comp/mult_c_out
*905 test_pe_comp/U189
*906 test_pe_comp/test_mult_add/n750
*907 test_pe_comp/test_mult_add/n749
*908 test_pe_comp/test_mult_add/U660
*909 test_pe_comp/test_mult_add/n748
*910 test_pe_comp/test_mult_add/U627
*911 test_pe_comp/test_mult_add/n747
*912 test_pe_comp/test_mult_add/U45
*913 test_pe_comp/test_mult_add/n744
*914 test_pe_comp/test_mult_add/U1
*915 test_pe_comp/test_mult_add/U622
*916 test_pe_comp/test_mult_add/U619
*917 test_pe_comp/test_mult_add/U265
*918 test_pe_comp/test_mult_add/U163
*919 test_pe_comp/test_mult_add/U70
*920 test_pe_comp/test_mult_add/U68
*921 test_pe_comp/test_mult_add/n743
*922 test_pe_comp/test_mult_add/U2
*923 test_pe_comp/test_mult_add/U37
*924 test_pe_comp/test_mult_add/U33
*925 test_pe_comp/test_mult_add/U113
*926 test_pe_comp/test_mult_add/U104
*927 test_pe_comp/test_mult_add/U101
*928 test_pe_comp/test_mult_add/U97
*929 test_pe_comp/test_mult_add/U67
*930 test_pe_comp/test_mult_add/U50
*931 test_pe_comp/test_mult_add/U43
*932 test_pe_comp/test_mult_add/U294
*933 test_pe_comp/test_mult_add/U209
*934 test_pe_comp/test_mult_add/U200
*935 test_pe_comp/test_mult_add/U197
*936 test_pe_comp/test_mult_add/U189
*937 test_pe_comp/test_mult_add/U172
*938 test_pe_comp/test_mult_add/U156
*939 test_pe_comp/test_mult_add/n741
*940 test_pe_comp/test_mult_add/n740
*941 test_pe_comp/test_mult_add/U656
*942 op_c\[0\]
*943 test_pe_comp/GEN_ADD_1__full_add/U16
*944 test_pe_comp/U175
*945 test_pe_comp/U361
*946 test_opt_reg_c/U6
*947 test_pe_comp/mult_res\[0\]
*948 test_pe_comp/U216
*949 test_pe_comp/test_mult_add/n739
*950 test_pe_comp/test_mult_add/U561
*951 op_c\[1\]
*952 test_pe_comp/GEN_ADD_1__full_add/U15
*953 test_pe_comp/U176
*954 test_pe_comp/U362
*955 test_opt_reg_c/U7
*956 test_pe_comp/test_mult_add/n738
*957 test_pe_comp/test_mult_add/U655
*958 test_pe_comp/mult_res\[1\]
*959 test_pe_comp/U224
*960 test_pe_comp/test_mult_add/n737
*961 op_c\[2\]
*962 test_pe_comp/GEN_ADD_1__full_add/U14
*963 test_pe_comp/U174
*964 test_pe_comp/U173
*965 test_opt_reg_c/U8
*966 test_pe_comp/test_mult_add/n735
*967 test_pe_comp/test_mult_add/U654
*968 test_pe_comp/mult_res\[2\]
*969 test_pe_comp/U232
*970 test_pe_comp/test_mult_add/n734
*971 test_pe_comp/test_mult_add/n736
*972 test_pe_comp/test_mult_add/U557
*973 test_pe_comp/test_mult_add/n732
*974 test_pe_comp/test_mult_add/U653
*975 test_pe_comp/mult_res\[3\]
*976 test_pe_comp/U240
*977 test_pe_comp/test_mult_add/n731
*978 test_pe_comp/test_mult_add/n733
*979 test_pe_comp/test_mult_add/U556
*980 test_pe_comp/test_mult_add/n729
*981 test_pe_comp/test_mult_add/U652
*982 test_pe_comp/mult_res\[4\]
*983 test_pe_comp/U248
*984 test_pe_comp/test_mult_add/n728
*985 test_pe_comp/test_mult_add/n730
*986 test_pe_comp/test_mult_add/U555
*987 test_pe_comp/test_mult_add/n726
*988 test_pe_comp/test_mult_add/U651
*989 test_pe_comp/mult_res\[5\]
*990 test_pe_comp/U256
*991 test_pe_comp/test_mult_add/n725
*992 test_pe_comp/test_mult_add/n727
*993 test_pe_comp/test_mult_add/U554
*994 test_pe_comp/test_mult_add/n723
*995 test_pe_comp/test_mult_add/U650
*996 test_pe_comp/mult_res\[6\]
*997 test_pe_comp/U264
*998 test_pe_comp/test_mult_add/n722
*999 test_pe_comp/test_mult_add/n724
*1000 test_pe_comp/test_mult_add/U553
*1001 test_pe_comp/test_mult_add/n720
*1002 test_pe_comp/test_mult_add/U649
*1003 test_pe_comp/mult_res\[7\]
*1004 test_pe_comp/U272
*1005 test_pe_comp/test_mult_add/n719
*1006 test_pe_comp/test_mult_add/n721
*1007 test_pe_comp/test_mult_add/U552
*1008 test_pe_comp/test_mult_add/n717
*1009 test_pe_comp/test_mult_add/U648
*1010 test_pe_comp/mult_res\[8\]
*1011 test_pe_comp/U280
*1012 test_pe_comp/test_mult_add/n716
*1013 test_pe_comp/test_mult_add/n718
*1014 test_pe_comp/test_mult_add/U551
*1015 test_pe_comp/test_mult_add/n714
*1016 test_pe_comp/test_mult_add/U647
*1017 test_pe_comp/mult_res\[9\]
*1018 test_pe_comp/U288
*1019 test_pe_comp/U221
*1020 test_pe_comp/test_mult_add/n713
*1021 test_pe_comp/test_mult_add/n715
*1022 test_pe_comp/test_mult_add/U550
*1023 test_pe_comp/test_mult_add/n711
*1024 test_pe_comp/test_mult_add/U646
*1025 test_pe_comp/mult_res\[10\]
*1026 test_pe_comp/U296
*1027 test_pe_comp/U229
*1028 test_pe_comp/test_mult_add/n710
*1029 test_pe_comp/test_mult_add/n712
*1030 test_pe_comp/test_mult_add/U549
*1031 test_pe_comp/test_mult_add/n708
*1032 test_pe_comp/test_mult_add/U645
*1033 test_pe_comp/mult_res\[11\]
*1034 test_pe_comp/U304
*1035 test_pe_comp/U237
*1036 test_pe_comp/test_mult_add/n707
*1037 test_pe_comp/test_mult_add/n709
*1038 test_pe_comp/test_mult_add/U548
*1039 test_pe_comp/test_mult_add/n705
*1040 test_pe_comp/test_mult_add/U644
*1041 test_pe_comp/mult_res\[12\]
*1042 test_pe_comp/U312
*1043 test_pe_comp/U245
*1044 test_pe_comp/test_mult_add/n704
*1045 test_pe_comp/test_mult_add/n706
*1046 test_pe_comp/test_mult_add/U547
*1047 test_pe_comp/test_mult_add/n702
*1048 test_pe_comp/test_mult_add/U643
*1049 test_pe_comp/mult_res\[13\]
*1050 test_pe_comp/U320
*1051 test_pe_comp/U253
*1052 test_pe_comp/test_mult_add/n701
*1053 test_pe_comp/test_mult_add/n703
*1054 test_pe_comp/test_mult_add/U546
*1055 test_pe_comp/test_mult_add/n699
*1056 test_pe_comp/test_mult_add/U642
*1057 test_pe_comp/mult_res\[14\]
*1058 test_pe_comp/U328
*1059 test_pe_comp/U261
*1060 test_pe_comp/test_mult_add/n698
*1061 test_pe_comp/test_mult_add/n700
*1062 test_pe_comp/test_mult_add/U545
*1063 test_pe_comp/test_mult_add/n696
*1064 test_pe_comp/test_mult_add/U641
*1065 test_pe_comp/mult_res\[15\]
*1066 test_pe_comp/U370
*1067 test_pe_comp/test_mult_add/n695
*1068 test_pe_comp/test_mult_add/n697
*1069 test_pe_comp/test_mult_add/U544
*1070 test_pe_comp/test_mult_add/n692
*1071 test_pe_comp/test_mult_add/U640
*1072 test_pe_comp/mult_res\[16\]
*1073 test_pe_comp/U277
*1074 test_pe_comp/U210
*1075 test_pe_comp/U119
*1076 test_pe_comp/test_mult_add/n694
*1077 test_pe_comp/test_mult_add/U480
*1078 test_pe_comp/test_mult_add/n689
*1079 test_pe_comp/test_mult_add/U639
*1080 test_pe_comp/test_mult_add/n693
*1081 test_pe_comp/mult_res\[17\]
*1082 test_pe_comp/U285
*1083 test_pe_comp/test_mult_add/n691
*1084 test_pe_comp/test_mult_add/U462
*1085 test_pe_comp/test_mult_add/n687
*1086 test_pe_comp/test_mult_add/U638
*1087 test_pe_comp/test_mult_add/n690
*1088 test_pe_comp/test_mult_add/U478
*1089 test_pe_comp/mult_res\[18\]
*1090 test_pe_comp/U373
*1091 test_pe_comp/test_mult_add/n686
*1092 test_pe_comp/test_mult_add/U625
*1093 test_pe_comp/test_mult_add/n688
*1094 test_pe_comp/test_mult_add/U461
*1095 test_pe_comp/test_mult_add/n683
*1096 test_pe_comp/test_mult_add/U637
*1097 test_pe_comp/mult_res\[19\]
*1098 test_pe_comp/U374
*1099 test_pe_comp/test_mult_add/n685