*SPEF "1481-1998"
*DESIGN "test_pe"
*DATE "Thu Mar 14 17:00:57 2019"
*VENDOR "Synopsys, Inc."
*PROGRAM "icc_shell"
*VERSION "M-2016.12-SP2"
*DESIGN_FLOW "PIN_CAP NONE"
*DIVIDER /
*DELIMITER :
*BUS_DELIMITER [ ]
*T_UNIT 1 NS
*C_UNIT 1 FF
*R_UNIT 1 OHM
*L_UNIT 1 HENRY

*NAME_MAP
*1 cfg_d[0]
*2 VDD
*3 VSS
*4 cfg_d[8]
*5 cfg_d[7]
*6 cfg_d[6]
*7 cfg_d[5]
*8 cfg_d[4]
*9 cfg_d[3]
*10 cfg_d[2]
*11 cfg_d[1]
*12 cfg_d[16]
*13 cfg_d[15]
*14 cfg_d[14]
*15 cfg_d[13]
*16 cfg_d[12]
*17 cfg_d[11]
*18 cfg_d[10]
*19 cfg_d[9]
*20 cfg_d[24]
*21 cfg_d[23]
*22 cfg_d[22]
*23 cfg_d[21]
*24 cfg_d[20]
*25 cfg_d[19]
*26 cfg_d[18]
*27 cfg_d[17]
*28 cfg_a[0]
*29 cfg_d[31]
*30 cfg_d[30]
*31 cfg_d[29]
*32 cfg_d[28]
*33 cfg_d[27]
*34 cfg_d[26]
*35 cfg_d[25]
*36 data0[0]
*37 cfg_a[7]
*38 cfg_a[6]
*39 cfg_a[5]
*40 cfg_a[4]
*41 cfg_a[3]
*42 cfg_a[2]
*43 cfg_a[1]
*44 data0[8]
*45 data0[7]
*46 data0[6]
*47 data0[5]
*48 data0[4]
*49 data0[3]
*50 data0[2]
*51 data0[1]
*52 data1[0]
*53 data0[15]
*54 data0[14]
*55 data0[13]
*56 data0[12]
*57 data0[11]
*58 data0[10]
*59 data0[9]
*60 data1[8]
*61 data1[7]
*62 data1[6]
*63 data1[5]
*64 data1[4]
*65 data1[3]
*66 data1[2]
*67 data1[1]
*68 data2[0]
*69 data1[15]
*70 data1[14]
*71 data1[13]
*72 data1[12]
*73 data1[11]
*74 data1[10]
*75 data1[9]
*76 data2[8]
*77 data2[7]
*78 data2[6]
*79 data2[5]
*80 data2[4]
*81 data2[3]
*82 data2[2]
*83 data2[1]
*84 res[0]
*85 data2[15]
*86 data2[14]
*87 data2[13]
*88 data2[12]
*89 data2[11]
*90 data2[10]
*91 data2[9]
*92 res[8]
*93 res[7]
*94 res[6]
*95 res[5]
*96 res[4]
*97 res[3]
*98 res[2]
*99 res[1]
*100 read_data[0]
*101 res[15]
*102 res[14]
*103 res[13]
*104 res[12]
*105 res[11]
*106 res[10]
*107 res[9]
*108 read_data[8]
*109 read_data[7]
*110 read_data[6]
*111 read_data[5]
*112 read_data[4]
*113 read_data[3]
*114 read_data[2]
*115 read_data[1]
*116 read_data[16]
*117 read_data[15]
*118 read_data[14]
*119 read_data[13]
*120 read_data[12]
*121 read_data[11]
*122 read_data[10]
*123 read_data[9]
*124 read_data[24]
*125 read_data[23]
*126 read_data[22]
*127 read_data[21]
*128 read_data[20]
*129 read_data[19]
*130 read_data[18]
*131 read_data[17]
*132 clk
*133 read_data[31]
*134 read_data[30]
*135 read_data[29]
*136 read_data[28]
*137 read_data[27]
*138 read_data[26]
*139 read_data[25]
*140 res_p
*141 irq
*142 bit2
*143 bit1
*144 bit0
*145 cfg_en
*146 clk_en
*147 rst_n
*148 INVX8_LVT_G1B13I1
*149 clk_gate_op_code_reg/latch
*150 net790
*151 NBUFFX4_LVT_G2B1I1
*152 U307
*153 N31
*154 U309
*155 U347
*156 op_code_reg_0_
*157 test_debug_bit/U5
*158 test_debug_data/debug_val_reg_0_
*159 test_lut/GEN_LUT_0__lut_reg_0_
*160 test_opt_reg_f/U6
*161 test_opt_reg_e/U6
*162 test_opt_reg_d/U6
*163 test_opt_reg_c/U23
*164 test_opt_reg_a/U23
*165 test_debug_bit/n1
*166 test_debug_bit/U4
*167 test_debug_bit/n4
*168 test_debug_bit/U1
*169 read_data_debug_bit_0_
*170 test_debug_bit/U2
*171 test_debug_bit/debug_val_reg_0_
*172 U207
*173 n_6_net_
*174 U195
*175 irq_bit
*176 U311
*177 U56
*178 U3
*179 U1
*180 test_opt_reg_a/data_in_reg_reg_13_
*181 test_opt_reg_a/data_in_reg_reg_15_
*182 test_opt_reg_file/data_in_reg_reg_0__12_
*183 test_opt_reg_file/data_in_reg_reg_0__13_
*184 test_opt_reg_file/data_in_reg_reg_0__14_
*185 test_opt_reg_file/data_in_reg_reg_0__15_
*186 test_opt_reg_file/data_in_reg_reg_0__4_
*187 test_opt_reg_file/data_in_reg_reg_0__5_
*188 test_opt_reg_file/data_in_reg_reg_0__6_
*189 test_opt_reg_file/data_in_reg_reg_0__7_
*190 test_opt_reg_file/data_in_reg_reg_0__8_
*191 test_opt_reg_file/data_in_reg_reg_0__9_
*192 test_opt_reg_file/data_in_reg_reg_0__10_
*193 test_opt_reg_file/data_in_reg_reg_0__11_
*194 test_opt_reg_c/data_in_reg_reg_12_
*195 test_opt_reg_c/data_in_reg_reg_13_
*196 test_opt_reg_c/data_in_reg_reg_14_
*197 test_opt_reg_c/data_in_reg_reg_15_
*198 test_opt_reg_file/data_in_reg_reg_0__0_
*199 test_opt_reg_file/data_in_reg_reg_0__1_
*200 test_opt_reg_file/data_in_reg_reg_0__2_
*201 test_opt_reg_file/data_in_reg_reg_0__3_
*202 test_opt_reg_c/data_in_reg_reg_4_
*203 test_opt_reg_c/data_in_reg_reg_5_
*204 test_opt_reg_c/data_in_reg_reg_6_
*205 test_opt_reg_c/data_in_reg_reg_7_
*206 test_opt_reg_c/data_in_reg_reg_8_
*207 test_opt_reg_c/data_in_reg_reg_9_
*208 test_opt_reg_c/data_in_reg_reg_10_
*209 test_opt_reg_c/data_in_reg_reg_11_
*210 test_opt_reg_c/data_in_reg_reg_0_
*211 test_opt_reg_c/data_in_reg_reg_1_
*212 test_opt_reg_c/data_in_reg_reg_2_
*213 test_opt_reg_c/data_in_reg_reg_3_
*214 test_debug_data/net808
*215 test_debug_data/debug_val_reg_15_
*216 test_debug_data/debug_val_reg_7_
*217 test_debug_data/debug_val_reg_8_
*218 test_debug_data/debug_val_reg_9_
*219 test_debug_data/debug_val_reg_10_
*220 test_debug_data/debug_val_reg_11_
*221 test_debug_data/debug_val_reg_12_
*222 test_debug_data/debug_val_reg_13_
*223 test_debug_data/debug_val_reg_14_
*224 test_debug_data/clk_gate_debug_val_reg/latch
*225 test_debug_data/debug_val_reg_1_
*226 test_debug_data/debug_val_reg_2_
*227 test_debug_data/debug_val_reg_3_
*228 test_debug_data/debug_val_reg_4_
*229 test_debug_data/debug_val_reg_5_
*230 test_debug_data/debug_val_reg_6_
*231 n_5_net_
*232 U310
*233 irq_data
*234 test_debug_data/U20
*235 test_debug_data/n17
*236 test_debug_data/U19
*237 test_debug_data/n18
*238 test_debug_data/U10
*239 test_debug_data/n15
*240 test_debug_data/U14
*241 test_debug_data/n13
*242 test_debug_data/U18
*243 test_debug_data/n14
*244 test_debug_data/U16
*245 test_debug_data/n16
*246 test_debug_data/U12
*247 test_debug_data/n33
*248 test_debug_data/U17
*249 U44
*250 U43
*251 test_debug_data/n12
*252 test_debug_data/n22
*253 test_debug_data/n32
*254 test_debug_data/U15
*255 U46
*256 U45
*257 test_debug_data/n11
*258 test_debug_data/n21
*259 test_debug_data/n34
*260 test_debug_data/U13
*261 U40
*262 U39
*263 test_debug_data/n10
*264 test_debug_data/n20
*265 test_debug_data/n31
*266 test_debug_data/U11
*267 U42
*268 U41
*269 test_debug_data/n9
*270 test_debug_data/n19
*271 test_debug_data/n7
*272 test_debug_data/U5
*273 test_debug_data/n5
*274 test_debug_data/U9
*275 test_debug_data/n6
*276 test_debug_data/U7
*277 test_debug_data/n8
*278 test_debug_data/U3
*279 test_debug_data/n30
*280 test_debug_data/U8
*281 U53
*282 U51
*283 test_debug_data/n4
*284 test_debug_data/n26
*285 test_debug_data/n29
*286 test_debug_data/U6
*287 U55
*288 U54
*289 test_debug_data/n3
*290 test_debug_data/n25
*291 test_debug_data/U21
*292 test_debug_data/n28
*293 test_debug_data/U1
*294 test_debug_data/U4
*295 U48
*296 U47
*297 test_debug_data/n2
*298 test_debug_data/n24
*299 test_debug_data/n27
*300 test_debug_data/U2
*301 U50
*302 U49
*303 test_debug_data/n1
*304 test_debug_data/n23
*305 read_data_debug_data\[0\]
*306 U212
*307 read_data_debug_data\[1\]
*308 U224
*309 test_lut/GEN_LUT_0__lut_reg_1_
*310 test_opt_reg_c/U24
*311 test_opt_reg_a/U24
*312 U348
*313 op_code_reg_1_
*314 read_data_debug_data\[2\]
*315 U228
*316 test_lut/GEN_LUT_0__lut_reg_2_
*317 test_opt_reg_c/U25
*318 test_opt_reg_a/U25
*319 U349
*320 op_code_reg_2_
*321 read_data_debug_data\[3\]
*322 U232
*323 test_lut/GEN_LUT_0__lut_reg_3_
*324 test_opt_reg_c/U26
*325 test_opt_reg_a/U26
*326 U350
*327 op_code_reg_3_
*328 read_data_debug_data\[4\]
*329 U236
*330 test_lut/GEN_LUT_0__lut_reg_4_
*331 test_opt_reg_c/U27
*332 test_opt_reg_a/U27
*333 U351
*334 op_code_reg_4_
*335 read_data_debug_data\[5\]
*336 U240
*337 test_lut/GEN_LUT_0__lut_reg_5_
*338 test_opt_reg_c/U28
*339 test_opt_reg_a/U28
*340 U352
*341 op_code_reg_5_
*342 read_data_debug_data\[6\]
*343 U244
*344 test_lut/GEN_LUT_0__lut_reg_6_
*345 test_opt_reg_c/U29
*346 test_opt_reg_a/U29
*347 U353
*348 op_code_reg_6_
*349 read_data_debug_data\[7\]
*350 U248
*351 test_lut/GEN_LUT_0__lut_reg_7_
*352 test_opt_reg_c/U30
*353 test_opt_reg_a/U30
*354 U354
*355 op_code_reg_7_
*356 read_data_debug_data\[8\]
*357 U252
*358 test_opt_reg_c/U31
*359 test_opt_reg_a/U31
*360 U355
*361 op_code_reg_8_
*362 read_data_debug_data\[9\]
*363 U256
*364 test_opt_reg_c/U32
*365 test_opt_reg_a/U32
*366 U356
*367 op_code_reg_9_
*368 read_data_debug_data\[10\]
*369 U260
*370 test_opt_reg_c/U33
*371 test_opt_reg_a/U33
*372 U357
*373 op_code_reg_10_
*374 read_data_debug_data\[11\]
*375 U264
*376 test_opt_reg_c/U34
*377 test_opt_reg_a/U34
*378 U358
*379 op_code_reg_11_
*380 read_data_debug_data\[12\]
*381 U268
*382 test_opt_reg_c/U35
*383 test_opt_reg_a/U35
*384 U359
*385 op_code_reg_12_
*386 read_data_debug_data\[13\]
*387 U272
*388 test_opt_reg_c/U36
*389 test_opt_reg_a/U36
*390 U360
*391 op_code_reg_13_
*392 read_data_debug_data\[14\]
*393 U276
*394 test_opt_reg_c/U37
*395 test_opt_reg_a/U37
*396 U361
*397 op_code_reg_14_
*398 read_data_debug_data\[15\]
*399 U280
*400 test_opt_reg_c/U38
*401 test_opt_reg_a/U38
*402 U362
*403 op_code_reg_15_
*404 test_lut/net826
*405 test_lut/CTS_clk_CTO_delay3
*406 test_lut/clk_gate_GEN_LUT_0__lut_reg/latch
*407 test_lut/N4
*408 test_lut/U5
*409 test_lut/n6
*410 test_lut/U9
*411 test_lut/U6
*412 test_lut/n5
*413 test_lut/U7
*414 res_lut
*415 U301
*416 test_lut/n4
*417 test_lut/U8
*418 op_e_p
*419 test_opt_reg_e/U4
*420 read_data_lut\[0\]
*421 U220
*422 op_f_p
*423 test_opt_reg_f/U4
*424 op_d_p
*425 test_pe_comp/U203
*426 test_pe_comp/U200
*427 test_pe_comp/U198
*428 test_pe_comp/U83
*429 test_opt_reg_d/U4
*430 U345
*431 read_data_lut\[4\]
*432 U235
*433 read_data_lut\[5\]
*434 U239
*435 read_data_lut\[1\]
*436 U223
*437 read_data_lut\[2\]
*438 U227
*439 read_data_lut\[6\]
*440 U243
*441 read_data_lut\[7\]
*442 U247
*443 read_data_lut\[3\]
*444 U231
*445 U218
*446 U205
*447 U202
*448 U183
*449 U4
*450 test_lut/n3
*451 test_lut/U4
*452 U196
*453 U185
*454 U182
*455 test_lut/n2
*456 test_lut/U3
*457 U204
*458 U198
*459 U209
*460 U206
*461 U199
*462 U186
*463 U6
*464 U189
*465 U184
*466 U201
*467 U193
*468 test_lut/n1
*469 test_lut/U2
*470 U217
*471 U197
*472 U181
*473 U188
*474 U5
*475 U192
*476 U215
*477 test_pe_comp/shift_res\[10\]
*478 test_pe_comp/test_shifter/U164
*479 test_pe_comp/U295
*480 test_pe_comp/test_shifter/n147
*481 test_pe_comp/test_shifter/U163
*482 test_pe_comp/test_shifter/n148
*483 test_pe_comp/test_shifter/U149
*484 test_pe_comp/test_shifter/U148
*485 op_b\[3\]
*486 test_opt_reg_file/U8
*487 U24
*488 test_pe_comp/test_shifter/n144
*489 test_pe_comp/test_shifter/U157
*490 test_pe_comp/test_shifter/U156
*491 test_pe_comp/test_shifter/n145
*492 test_pe_comp/test_shifter/U154
*493 test_pe_comp/test_shifter/n143
*494 test_pe_comp/test_shifter/U130
*495 test_pe_comp/test_shifter/U118
*496 test_pe_comp/test_shifter/U94
*497 test_pe_comp/test_shifter/U73
*498 test_pe_comp/test_shifter/U49
*499 test_pe_comp/test_shifter/U48
*500 test_pe_comp/test_shifter/n140
*501 test_pe_comp/test_shifter/U162
*502 test_pe_comp/test_shifter/U50
*503 test_pe_comp/n292
*504 test_pe_comp/test_shifter/U8
*505 test_pe_comp/test_shifter/U5
*506 test_pe_comp/test_shifter/U1
*507 test_pe_comp/U15
*508 test_pe_comp/test_shifter/U145
*509 test_pe_comp/test_shifter/U142
*510 test_pe_comp/test_shifter/U138
*511 test_pe_comp/test_shifter/U72
*512 test_pe_comp/test_shifter/U54
*513 test_pe_comp/test_shifter/U46
*514 test_pe_comp/test_shifter/U38
*515 test_pe_comp/test_shifter/U34
*516 test_pe_comp/test_shifter/U160
*517 test_pe_comp/test_shifter/U152
*518 test_pe_comp/test_shifter/U150
*519 test_pe_comp/test_shifter/n141
*520 test_pe_comp/test_shifter/U71
*521 test_pe_comp/shift_res\[8\]
*522 test_pe_comp/U279
*523 test_pe_comp/test_shifter/n142
*524 test_pe_comp/test_shifter/U63
*525 test_pe_comp/test_shifter/U62
*526 test_pe_comp/test_shifter/n138
*527 test_pe_comp/test_shifter/U161
*528 test_pe_comp/test_shifter/n139
*529 test_pe_comp/test_shifter/U159
*530 test_pe_comp/shift_res\[6\]
*531 test_pe_comp/U263
*532 test_pe_comp/test_shifter/n137
*533 test_pe_comp/test_shifter/U93
*534 test_pe_comp/test_shifter/U89
*535 test_pe_comp/test_shifter/n136
*536 test_pe_comp/test_shifter/U92
*537 test_pe_comp/test_shifter/n133
*538 test_pe_comp/test_shifter/U153
*539 test_pe_comp/test_shifter/U144
*540 test_pe_comp/test_shifter/U143
*541 test_pe_comp/test_shifter/n134
*542 test_pe_comp/test_shifter/U120
*543 test_pe_comp/test_shifter/U119
*544 test_pe_comp/test_shifter/n135
*545 test_pe_comp/test_shifter/U82
*546 test_pe_comp/test_shifter/U78
*547 test_pe_comp/test_shifter/n131
*548 test_pe_comp/test_shifter/U158
*549 test_pe_comp/test_shifter/n132
*550 test_pe_comp/shift_res\[5\]
*551 test_pe_comp/U255
*552 test_pe_comp/test_shifter/n129
*553 test_pe_comp/test_shifter/U155
*554 test_pe_comp/test_shifter/n130
*555 test_pe_comp/test_shifter/U136
*556 test_pe_comp/test_shifter/U100
*557 test_pe_comp/test_shifter/U56
*558 test_pe_comp/test_shifter/U55
*559 test_pe_comp/test_shifter/n128
*560 test_pe_comp/test_shifter/U128
*561 test_pe_comp/test_shifter/U111
*562 test_pe_comp/test_shifter/U75
*563 test_pe_comp/test_shifter/n124
*564 test_pe_comp/test_shifter/U77
*565 test_pe_comp/test_shifter/U76
*566 test_pe_comp/test_shifter/n125
*567 test_pe_comp/test_shifter/U127
*568 test_pe_comp/test_shifter/U115
*569 test_pe_comp/test_shifter/U58
*570 test_pe_comp/test_shifter/U30
*571 test_pe_comp/test_shifter/U19
*572 test_pe_comp/test_shifter/n126
*573 test_pe_comp/test_shifter/U126
*574 test_pe_comp/test_shifter/n121
*575 test_pe_comp/test_shifter/n122
*576 test_pe_comp/test_shifter/U117
*577 test_pe_comp/test_shifter/U116
*578 test_pe_comp/test_shifter/n123
*579 test_pe_comp/test_shifter/U109
*580 test_pe_comp/test_shifter/n118
*581 test_pe_comp/test_shifter/U151
*582 test_pe_comp/test_shifter/U57
*583 test_pe_comp/test_shifter/n119
*584 test_pe_comp/shift_res\[4\]
*585 test_pe_comp/U247
*586 test_pe_comp/test_shifter/n116
*587 test_pe_comp/test_shifter/U101
*588 test_pe_comp/test_shifter/n117
*589 test_pe_comp/test_shifter/U105
*590 test_pe_comp/test_shifter/U104
*591 test_pe_comp/shift_res\[2\]
*592 test_pe_comp/U231
*593 test_pe_comp/test_shifter/n114
*594 test_pe_comp/test_shifter/n115
*595 test_pe_comp/test_shifter/n113
*596 test_pe_comp/test_shifter/U147
*597 op_code\[6\]
*598 U2
*599 test_pe_comp/test_shifter/n112
*600 test_pe_comp/test_shifter/U35
*601 test_pe_comp/test_shifter/U4
*602 test_pe_comp/test_shifter/U140
*603 test_pe_comp/test_shifter/U95
*604 test_pe_comp/test_shifter/U79
*605 test_pe_comp/test_shifter/U61
*606 test_pe_comp/test_shifter/U51
*607 test_pe_comp/n305
*608 test_pe_comp/U372
*609 test_pe_comp/U59
*610 op_b\[2\]
*611 test_opt_reg_file/U7
*612 U23
*613 test_pe_comp/test_shifter/n110
*614 test_pe_comp/test_shifter/U146
*615 test_pe_comp/test_shifter/n111
*616 test_pe_comp/shift_res\[1\]
*617 test_pe_comp/U223
*618 test_pe_comp/test_shifter/n109
*619 test_pe_comp/test_shifter/U129
*620 test_pe_comp/test_shifter/n108
*621 test_pe_comp/test_shifter/n106
*622 test_pe_comp/test_shifter/U80
*623 test_pe_comp/test_shifter/n107
*624 test_pe_comp/test_shifter/U91
*625 test_pe_comp/test_shifter/U90
*626 test_pe_comp/test_shifter/n105
*627 test_pe_comp/test_shifter/U47
*628 test_pe_comp/test_shifter/U16
*629 test_pe_comp/test_shifter/n103
*630 test_pe_comp/test_shifter/U52
*631 test_pe_comp/test_shifter/U40
*632 test_pe_comp/test_shifter/U26
*633 test_pe_comp/test_shifter/U20
*634 test_pe_comp/test_shifter/U6
*635 test_pe_comp/test_shifter/U141
*636 test_pe_comp/test_shifter/U132
*637 test_pe_comp/test_shifter/U122
*638 test_pe_comp/test_shifter/U112
*639 test_pe_comp/test_shifter/U96
*640 test_pe_comp/test_shifter/U83
*641 test_pe_comp/test_shifter/U67
*642 test_pe_comp/test_shifter/U64
*643 test_pe_comp/shift_res\[0\]
*644 test_pe_comp/U215
*645 test_pe_comp/test_shifter/n102
*646 test_pe_comp/test_shifter/U137
*647 test_pe_comp/test_shifter/n104
*648 test_pe_comp/test_shifter/n101
*649 test_pe_comp/test_shifter/U139
*650 test_pe_comp/test_shifter/U135
*651 test_pe_comp/test_shifter/U17
*652 test_pe_comp/shift_res\[15\]
*653 test_pe_comp/U335
*654 test_pe_comp/test_shifter/n100
*655 test_pe_comp/test_shifter/n98
*656 test_pe_comp/test_shifter/U44
*657 test_pe_comp/test_shifter/U36
*658 test_pe_comp/test_shifter/n99
*659 test_pe_comp/test_shifter/U110
*660 test_pe_comp/test_shifter/U45
*661 test_pe_comp/test_shifter/U33
*662 op_a\[15\]
*663 test_opt_reg_a/U5
*664 test_pe_comp/U48
*665 test_pe_comp/test_shifter/n97
*666 test_pe_comp/test_shifter/U131
*667 test_pe_comp/test_shifter/n96
*668 test_pe_comp/test_shifter/n95
*669 test_pe_comp/test_shifter/n94
*670 test_pe_comp/test_shifter/U70
*671 test_pe_comp/test_shifter/n93
*672 test_pe_comp/test_shifter/U29
*673 test_pe_comp/test_shifter/n91
*674 test_pe_comp/test_shifter/U134
*675 test_pe_comp/test_shifter/n92
*676 test_pe_comp/test_shifter/U114
*677 test_pe_comp/test_shifter/n89
*678 test_pe_comp/test_shifter/U133
*679 test_pe_comp/test_shifter/n90
*680 op_a\[1\]
*681 test_opt_reg_a/U8
*682 test_pe_comp/U52
*683 op_a\[14\]
*684 test_opt_reg_a/U21
*685 test_pe_comp/U205
*686 test_pe_comp/test_shifter/n88
*687 test_pe_comp/test_shifter/U7
*688 test_pe_comp/test_shifter/U13
*689 op_a\[0\]
*690 test_opt_reg_a/U7
*691 test_pe_comp/U51
*692 test_pe_comp/test_mult_add/U558
*693 test_pe_comp/GEN_ADD_0__full_add/U16
*694 test_pe_comp/U219
*695 test_pe_comp/U207
*696 test_pe_comp/U22
*697 test_pe_comp/test_shifter/n84
*698 test_pe_comp/test_shifter/U106
*699 test_pe_comp/test_shifter/U53
*700 test_pe_comp/test_shifter/n85
*701 test_pe_comp/test_shifter/U99
*702 test_pe_comp/shift_res\[14\]
*703 test_pe_comp/U327
*704 test_pe_comp/test_shifter/n83
*705 test_pe_comp/test_shifter/n82
*706 test_pe_comp/test_shifter/n80
*707 test_pe_comp/test_shifter/n79
*708 test_pe_comp/test_shifter/U125
*709 test_pe_comp/test_shifter/n78
*710 test_pe_comp/test_shifter/U25
*711 test_pe_comp/test_shifter/U24
*712 test_pe_comp/test_shifter/n76
*713 test_pe_comp/test_shifter/U28
*714 test_pe_comp/test_shifter/n72
*715 test_pe_comp/test_shifter/U124
*716 test_pe_comp/test_shifter/n73
*717 test_pe_comp/test_shifter/U123
*718 test_pe_comp/test_shifter/n74
*719 test_pe_comp/test_shifter/U11
*720 op_a\[13\]
*721 test_pe_comp/U323
*722 test_pe_comp/U316
*723 test_pe_comp/U67
*724 test_opt_reg_a/U20
*725 test_pe_comp/U172
*726 test_pe_comp/test_mult_add/U52
*727 test_pe_comp/test_mult_add/U14
*728 test_pe_comp/test_mult_add/U10
*729 test_pe_comp/GEN_ADD_0__full_add/U3
*730 test_pe_comp/test_shifter/n71
*731 test_pe_comp/test_shifter/U121
*732 test_pe_comp/test_shifter/n70
*733 op_a\[2\]
*734 test_opt_reg_a/U9
*735 test_pe_comp/U55
*736 test_pe_comp/test_shifter/n68
*737 test_pe_comp/test_shifter/n69
*738 test_pe_comp/test_shifter/U81
*739 test_pe_comp/shift_res\[13\]
*740 test_pe_comp/U319
*741 test_pe_comp/test_shifter/n66
*742 test_pe_comp/test_shifter/n65
*743 test_pe_comp/test_shifter/n64
*744 test_pe_comp/test_shifter/U88
*745 test_pe_comp/test_shifter/n62
*746 test_pe_comp/test_shifter/U87
*747 test_pe_comp/test_shifter/U86
*748 test_pe_comp/test_shifter/n63
*749 test_pe_comp/test_shifter/U98
*750 test_pe_comp/test_shifter/n60
*751 test_pe_comp/test_shifter/U113
*752 test_pe_comp/test_shifter/n61
*753 op_a\[3\]
*754 test_opt_reg_a/U10
*755 op_a\[12\]
*756 test_pe_comp/U315
*757 test_pe_comp/U308
*758 test_pe_comp/U64
*759 test_opt_reg_a/U19
*760 test_pe_comp/U171
*761 test_pe_comp/test_shifter/U41
*762 test_pe_comp/test_mult_add/U8
*763 test_pe_comp/GEN_ADD_0__full_add/U4
*764 test_pe_comp/test_shifter/n59
*765 test_pe_comp/test_shifter/U74
*766 test_pe_comp/shift_res\[12\]
*767 test_pe_comp/test_shifter/U107
*768 test_pe_comp/U311
*769 test_pe_comp/test_shifter/n58
*770 test_pe_comp/test_shifter/U103
*771 test_pe_comp/test_shifter/n57
*772 test_pe_comp/test_shifter/n56
*773 test_pe_comp/test_shifter/n55
*774 test_pe_comp/test_shifter/n54
*775 test_pe_comp/shift_res\[11\]
*776 test_pe_comp/U303
*777 test_pe_comp/test_shifter/n53
*778 test_pe_comp/test_shifter/n52
*779 test_pe_comp/test_shifter/U102
*780 test_pe_comp/test_shifter/n51
*781 test_pe_comp/test_shifter/U43
*782 test_pe_comp/test_shifter/n50
*783 test_pe_comp/test_shifter/n49
*784 test_pe_comp/test_shifter/U85
*785 test_pe_comp/test_shifter/n47
*786 test_pe_comp/test_shifter/U97
*787 test_pe_comp/test_shifter/n48
*788 op_a\[5\]
*789 test_opt_reg_a/U12
*790 test_pe_comp/U66
*791 op_a\[10\]
*792 test_pe_comp/GEN_ADD_0__full_add/U6
*793 test_pe_comp/U299
*794 test_pe_comp/U292
*795 test_pe_comp/U53
*796 test_pe_comp/U117
*797 test_opt_reg_a/U17
*798 test_pe_comp/test_shifter/U21
*799 test_pe_comp/test_mult_add/U125
*800 test_pe_comp/test_mult_add/U22
*801 test_pe_comp/test_mult_add/U20
*802 op_a\[11\]
*803 test_opt_reg_a/U18
*804 test_pe_comp/U122
*805 op_a\[4\]
*806 test_opt_reg_a/U11
*807 test_pe_comp/U63
*808 test_pe_comp/test_shifter/n46
*809 test_pe_comp/test_shifter/U14
*810 test_pe_comp/test_shifter/U12
*811 test_pe_comp/shift_res\[9\]
*812 test_pe_comp/U287
*813 test_pe_comp/test_shifter/n45
*814 test_pe_comp/test_shifter/n44
*815 test_pe_comp/test_shifter/n43
*816 test_pe_comp/test_shifter/n42
*817 test_pe_comp/test_shifter/n40
*818 test_pe_comp/test_shifter/U18
*819 test_pe_comp/test_shifter/n41
*820 test_pe_comp/test_shifter/n38
*821 test_pe_comp/test_shifter/U66
*822 test_pe_comp/test_shifter/n39
*823 test_pe_comp/test_shifter/n37
*824 test_pe_comp/test_shifter/U69
*825 test_pe_comp/test_shifter/n35
*826 test_pe_comp/test_shifter/U84
*827 test_pe_comp/test_shifter/n36
*828 op_a\[7\]
*829 test_pe_comp/U275
*830 test_pe_comp/U268
*831 test_pe_comp/U43
*832 test_opt_reg_a/U22
*833 test_pe_comp/U75
*834 test_pe_comp/test_mult_add/U228
*835 test_pe_comp/test_mult_add/U86
*836 test_pe_comp/test_mult_add/U84
*837 test_pe_comp/GEN_ADD_0__full_add/U9
*838 op_a\[8\]
*839 test_opt_reg_a/U15
*840 test_pe_comp/U84
*841 op_a\[6\]
*842 test_pe_comp/U267
*843 test_pe_comp/U260
*844 test_pe_comp/U40
*845 test_opt_reg_a/U13
*846 test_pe_comp/U69
*847 test_pe_comp/test_shifter/U68
*848 test_pe_comp/test_shifter/U27
*849 test_pe_comp/test_mult_add/U81
*850 test_pe_comp/GEN_ADD_0__full_add/U10
*851 op_a\[9\]
*852 test_pe_comp/U291
*853 test_pe_comp/U284
*854 test_pe_comp/U50
*855 test_opt_reg_a/U16
*856 test_pe_comp/U108
*857 test_pe_comp/test_mult_add/U18
*858 test_pe_comp/GEN_ADD_0__full_add/U7
*859 test_pe_comp/test_shifter/n34
*860 test_pe_comp/test_shifter/U32
*861 test_pe_comp/test_shifter/n33
*862 test_pe_comp/test_shifter/n31
*863 test_pe_comp/test_shifter/U22
*864 test_pe_comp/test_shifter/n32
*865 test_pe_comp/test_shifter/U42
*866 test_pe_comp/test_shifter/n30
*867 test_pe_comp/test_shifter/n29
*868 test_pe_comp/test_shifter/U39
*869 test_pe_comp/shift_res\[7\]
*870 test_pe_comp/U271
*871 test_pe_comp/test_shifter/n28
*872 test_pe_comp/test_shifter/n27
*873 test_pe_comp/test_shifter/n25
*874 test_pe_comp/test_shifter/n26
*875 test_pe_comp/test_shifter/n23
*876 test_pe_comp/test_shifter/U65
*877 test_pe_comp/test_shifter/n24
*878 test_pe_comp/test_shifter/n22
*879 test_pe_comp/test_shifter/U59
*880 test_pe_comp/test_shifter/n20
*881 test_pe_comp/test_shifter/n21
*882 test_pe_comp/test_shifter/n19
*883 test_pe_comp/test_shifter/U60
*884 test_pe_comp/test_shifter/n17
*885 test_pe_comp/test_shifter/n14
*886 test_pe_comp/test_shifter/n15
*887 test_pe_comp/shift_res\[3\]
*888 test_pe_comp/U239
*889 test_pe_comp/test_shifter/n16
*890 test_pe_comp/test_shifter/n13
*891 op_b\[0\]
*892 test_opt_reg_file/U6
*893 U22
*894 test_pe_comp/test_shifter/n12
*895 test_pe_comp/test_shifter/U31
*896 test_pe_comp/test_shifter/n10
*897 test_pe_comp/test_shifter/n11
*898 test_pe_comp/test_shifter/n8
*899 test_pe_comp/test_shifter/n9
*900 test_pe_comp/test_shifter/n7
*901 test_pe_comp/test_shifter/U23
*902 test_pe_comp/test_shifter/n5
*903 test_pe_comp/test_shifter/U3
*904 test_pe_comp/test_shifter/U9
*905 test_pe_comp/test_shifter/n6
*906 test_pe_comp/test_shifter/U2
*907 test_pe_comp/test_shifter/n3
*908 test_pe_comp/test_shifter/n4
*909 test_pe_comp/test_shifter/n1
*910 test_pe_comp/test_shifter/U10
*911 test_pe_comp/test_shifter/n2
*912 test_pe_comp/test_mult_add/n753
*913 test_pe_comp/test_mult_add/U662
*914 test_pe_comp/test_mult_add/U659
*915 test_pe_comp/test_mult_add/U626
*916 test_pe_comp/test_mult_add/U46
*917 test_pe_comp/test_mult_add/n752
*918 test_pe_comp/test_mult_add/U658
*919 test_pe_comp/test_mult_add/n751
*920 test_pe_comp/test_mult_add/U661
*921 test_pe_comp/mult_c_out
*922 test_pe_comp/U189
*923 test_pe_comp/test_mult_add/n750
*924 test_pe_comp/test_mult_add/n749
*925 test_pe_comp/test_mult_add/U660
*926 test_pe_comp/test_mult_add/n748
*927 test_pe_comp/test_mult_add/U627
*928 test_pe_comp/test_mult_add/n747
*929 test_pe_comp/test_mult_add/U45
*930 test_pe_comp/test_mult_add/n744
*931 test_pe_comp/test_mult_add/U3
*932 test_pe_comp/test_mult_add/U12
*933 test_pe_comp/test_mult_add/U622
*934 test_pe_comp/test_mult_add/U619
*935 test_pe_comp/test_mult_add/U265
*936 test_pe_comp/test_mult_add/U186
*937 test_pe_comp/test_mult_add/U163
*938 test_pe_comp/test_mult_add/U70
*939 test_pe_comp/test_mult_add/U68
*940 test_pe_comp/test_mult_add/n743
*941 test_pe_comp/test_mult_add/U37
*942 test_pe_comp/test_mult_add/U33
*943 test_pe_comp/test_mult_add/U4
*944 test_pe_comp/test_mult_add/U23
*945 test_pe_comp/test_mult_add/U113
*946 test_pe_comp/test_mult_add/U104
*947 test_pe_comp/test_mult_add/U101
*948 test_pe_comp/test_mult_add/U97
*949 test_pe_comp/test_mult_add/U67
*950 test_pe_comp/test_mult_add/U50
*951 test_pe_comp/test_mult_add/U43
*952 test_pe_comp/test_mult_add/U294
*953 test_pe_comp/test_mult_add/U209
*954 test_pe_comp/test_mult_add/U200
*955 test_pe_comp/test_mult_add/U197
*956 test_pe_comp/test_mult_add/U189
*957 test_pe_comp/test_mult_add/U172
*958 test_pe_comp/test_mult_add/U156
*959 test_pe_comp/test_mult_add/n741
*960 test_pe_comp/test_mult_add/U657
*961 test_pe_comp/test_mult_add/U559
*962 test_pe_comp/test_mult_add/n740
*963 test_pe_comp/test_mult_add/U656
*964 op_c\[0\]
*965 test_pe_comp/GEN_ADD_1__full_add/U16
*966 test_pe_comp/U175
*967 test_pe_comp/U209
*968 test_opt_reg_c/U6
*969 test_pe_comp/mult_res\[0\]
*970 test_pe_comp/U216
*971 test_pe_comp/test_mult_add/n739
*972 test_pe_comp/test_mult_add/U561
*973 op_c\[1\]
*974 test_pe_comp/GEN_ADD_1__full_add/U15
*975 test_pe_comp/U176
*976 test_pe_comp/U211
*977 test_opt_reg_c/U7
*978 test_pe_comp/test_mult_add/n738
*979 test_pe_comp/test_mult_add/U655
*980 test_pe_comp/mult_res\[1\]
*981 test_pe_comp/U224
*982 test_pe_comp/test_mult_add/n737
*983 test_pe_comp/test_mult_add/U565
*984 op_c\[2\]
*985 test_pe_comp/GEN_ADD_1__full_add/U14
*986 test_pe_comp/U174
*987 test_pe_comp/U173
*988 test_opt_reg_c/U40
*989 test_pe_comp/test_mult_add/n735
*990 test_pe_comp/test_mult_add/U654
*991 test_pe_comp/mult_res\[2\]
*992 test_pe_comp/U232
*993 test_pe_comp/test_mult_add/n734
*994 test_pe_comp/test_mult_add/U569
*995 test_pe_comp/test_mult_add/n736
*996 test_pe_comp/test_mult_add/U557
*997 test_pe_comp/test_mult_add/n732
*998 test_pe_comp/test_mult_add/U653
*999 test_pe_comp/mult_res\[3\]
*1000 test_pe_comp/U240
*1001 test_pe_comp/test_mult_add/n731
*1002 test_pe_comp/test_mult_add/U573
*1003 test_pe_comp/test_mult_add/n733
*1004 test_pe_comp/test_mult_add/U556
*1005 test_pe_comp/test_mult_add/n729
*1006 test_pe_comp/test_mult_add/U652
*1007 test_pe_comp/mult_res\[4\]
*1008 test_pe_comp/U248
*1009 test_pe_comp/test_mult_add/n728
*1010 test_pe_comp/test_mult_add/U577
*1011 test_pe_comp/test_mult_add/n730
*1012 test_pe_comp/test_mult_add/U555
*1013 test_pe_comp/test_mult_add/n726
*1014 test_pe_comp/test_mult_add/U651
*1015 test_pe_comp/mult_res\[5\]
*1016 test_pe_comp/U256
*1017 test_pe_comp/test_mult_add/n725
*1018 test_pe_comp/test_mult_add/U581
*1019 test_pe_comp/test_mult_add/n727
*1020 test_pe_comp/test_mult_add/U554
*1021 test_pe_comp/test_mult_add/n723
*1022 test_pe_comp/test_mult_add/U650
*1023 test_pe_comp/mult_res\[6\]
*1024 test_pe_comp/U264
*1025 test_pe_comp/test_mult_add/n722
*1026 test_pe_comp/test_mult_add/U585
*1027 test_pe_comp/test_mult_add/n724
*1028 test_pe_comp/test_mult_add/U553
*1029 test_pe_comp/test_mult_add/n720
*1030 test_pe_comp/test_mult_add/U649
*1031 test_pe_comp/mult_res\[7\]
*1032 test_pe_comp/U272
*1033 test_pe_comp/test_mult_add/n719
*1034 test_pe_comp/test_mult_add/U589
*1035 test_pe_comp/test_mult_add/n721
*1036 test_pe_comp/test_mult_add/U552
*1037 test_pe_comp/test_mult_add/n717
*1038 test_pe_comp/test_mult_add/U648
*1039 test_pe_comp/mult_res\[8\]
*1040 test_pe_comp/U280
*1041 test_pe_comp/test_mult_add/U79
*1042 test_pe_comp/test_mult_add/n716
*1043 test_pe_comp/test_mult_add/U593
*1044 test_pe_comp/test_mult_add/n718
*1045 test_pe_comp/test_mult_add/U551
*1046 test_pe_comp/test_mult_add/n714
*1047 test_pe_comp/test_mult_add/U647
*1048 test_pe_comp/mult_res\[9\]
*1049 test_pe_comp/U288
*1050 test_pe_comp/U221
*1051 test_pe_comp/test_mult_add/n713
*1052 test_pe_comp/test_mult_add/U597
*1053 test_pe_comp/test_mult_add/n715
*1054 test_pe_comp/test_mult_add/U550
*1055 test_pe_comp/test_mult_add/n711
*1056 test_pe_comp/test_mult_add/U646
*1057 test_pe_comp/mult_res\[10\]
*1058 test_pe_comp/U296
*1059 test_pe_comp/U229
*1060 test_pe_comp/test_mult_add/n710
*1061 test_pe_comp/test_mult_add/U601
*1062 test_pe_comp/test_mult_add/n712
*1063 test_pe_comp/test_mult_add/U549
*1064 test_pe_comp/test_mult_add/n708
*1065 test_pe_comp/test_mult_add/U645
*1066 test_pe_comp/mult_res\[11\]
*1067 test_pe_comp/U304
*1068 test_pe_comp/U237
*1069 test_pe_comp/test_mult_add/n707
*1070 test_pe_comp/test_mult_add/U605
*1071 test_pe_comp/test_mult_add/n709
*1072 test_pe_comp/test_mult_add/U548
*1073 test_pe_comp/test_mult_add/n705
*1074 test_pe_comp/test_mult_add/U644
*1075 test_pe_comp/mult_res\[12\]
*1076 test_pe_comp/U312
*1077 test_pe_comp/U245
*1078 test_pe_comp/test_mult_add/n704
*1079 test_pe_comp/test_mult_add/U609
*1080 test_pe_comp/test_mult_add/n706
*1081 test_pe_comp/test_mult_add/U547
*1082 test_pe_comp/test_mult_add/n702
*1083 test_pe_comp/test_mult_add/U643
*1084 test_pe_comp/mult_res\[13\]
*1085 test_pe_comp/U320
*1086 test_pe_comp/U253
*1087 test_pe_comp/test_mult_add/n701
*1088 test_pe_comp/test_mult_add/U613
*1089 test_pe_comp/test_mult_add/n703
*1090 test_pe_comp/test_mult_add/U546
*1091 test_pe_comp/test_mult_add/n699
*1092 test_pe_comp/test_mult_add/U642