*SPEF "1481-1998"
*DESIGN "test_pe"
*DATE "Sun Mar 17 16:26:22 2019"
*VENDOR "Synopsys, Inc."
*PROGRAM "icc_shell"
*VERSION "M-2016.12-SP2"
*DESIGN_FLOW "PIN_CAP NONE"
*DIVIDER /
*DELIMITER :
*BUS_DELIMITER [ ]
*T_UNIT 1 NS
*C_UNIT 1 FF
*R_UNIT 1 OHM
*L_UNIT 1 HENRY

*NAME_MAP
*1 cfg_d[0]
*2 VDD
*3 VSS
*4 cfg_d[8]
*5 cfg_d[7]
*6 cfg_d[6]
*7 cfg_d[5]
*8 cfg_d[4]
*9 cfg_d[3]
*10 cfg_d[2]
*11 cfg_d[1]
*12 cfg_d[16]
*13 cfg_d[15]
*14 cfg_d[14]
*15 cfg_d[13]
*16 cfg_d[12]
*17 cfg_d[11]
*18 cfg_d[10]
*19 cfg_d[9]
*20 cfg_d[24]
*21 cfg_d[23]
*22 cfg_d[22]
*23 cfg_d[21]
*24 cfg_d[20]
*25 cfg_d[19]
*26 cfg_d[18]
*27 cfg_d[17]
*28 cfg_a[0]
*29 cfg_d[31]
*30 cfg_d[30]
*31 cfg_d[29]
*32 cfg_d[28]
*33 cfg_d[27]
*34 cfg_d[26]
*35 cfg_d[25]
*36 data0[0]
*37 cfg_a[7]
*38 cfg_a[6]
*39 cfg_a[5]
*40 cfg_a[4]
*41 cfg_a[3]
*42 cfg_a[2]
*43 cfg_a[1]
*44 data0[8]
*45 data0[7]
*46 data0[6]
*47 data0[5]
*48 data0[4]
*49 data0[3]
*50 data0[2]
*51 data0[1]
*52 data1[0]
*53 data0[15]
*54 data0[14]
*55 data0[13]
*56 data0[12]
*57 data0[11]
*58 data0[10]
*59 data0[9]
*60 data1[8]
*61 data1[7]
*62 data1[6]
*63 data1[5]
*64 data1[4]
*65 data1[3]
*66 data1[2]
*67 data1[1]
*68 data2[0]
*69 data1[15]
*70 data1[14]
*71 data1[13]
*72 data1[12]
*73 data1[11]
*74 data1[10]
*75 data1[9]
*76 data2[8]
*77 data2[7]
*78 data2[6]
*79 data2[5]
*80 data2[4]
*81 data2[3]
*82 data2[2]
*83 data2[1]
*84 res[0]
*85 data2[15]
*86 data2[14]
*87 data2[13]
*88 data2[12]
*89 data2[11]
*90 data2[10]
*91 data2[9]
*92 res[8]
*93 res[7]
*94 res[6]
*95 res[5]
*96 res[4]
*97 res[3]
*98 res[2]
*99 res[1]
*100 read_data[0]
*101 res[15]
*102 res[14]
*103 res[13]
*104 res[12]
*105 res[11]
*106 res[10]
*107 res[9]
*108 read_data[8]
*109 read_data[7]
*110 read_data[6]
*111 read_data[5]
*112 read_data[4]
*113 read_data[3]
*114 read_data[2]
*115 read_data[1]
*116 read_data[16]
*117 read_data[15]
*118 read_data[14]
*119 read_data[13]
*120 read_data[12]
*121 read_data[11]
*122 read_data[10]
*123 read_data[9]
*124 read_data[24]
*125 read_data[23]
*126 read_data[22]
*127 read_data[21]
*128 read_data[20]
*129 read_data[19]
*130 read_data[18]
*131 read_data[17]
*132 clk
*133 read_data[31]
*134 read_data[30]
*135 read_data[29]
*136 read_data[28]
*137 read_data[27]
*138 read_data[26]
*139 read_data[25]
*140 res_p
*141 irq
*142 bit2
*143 bit1
*144 bit0
*145 cfg_en
*146 clk_en
*147 rst_n
*148 INVX32_LVT_G1B13I1
*149 clk_gate_op_code_reg/latch
*150 net790
*151 NBUFFX4_LVT_G2B1I1
*152 U307
*153 N31
*154 U309
*155 U347
*156 op_code_reg_0_
*157 test_debug_bit/U5
*158 test_debug_data/debug_val_reg_0_
*159 test_lut/GEN_LUT_0__lut_reg_0_
*160 test_opt_reg_f/U6
*161 test_opt_reg_e/U6
*162 test_opt_reg_d/U6
*163 test_opt_reg_c/U23
*164 test_opt_reg_a/U23
*165 test_debug_bit/n1
*166 test_debug_bit/U4
*167 test_debug_bit/n4
*168 test_debug_bit/U1
*169 read_data_debug_bit_0_
*170 test_debug_bit/U2
*171 test_debug_bit/debug_val_reg_0_
*172 U207
*173 n_6_net_
*174 U195
*175 irq_bit
*176 U311
*177 U51
*178 op_code_reg_12_
*179 op_code_reg_13_
*180 op_code_reg_14_
*181 op_code_reg_15_
*182 U2
*183 U3
*184 op_code_reg_4_
*185 op_code_reg_5_
*186 op_code_reg_6_
*187 op_code_reg_7_
*188 op_code_reg_8_
*189 op_code_reg_9_
*190 op_code_reg_10_
*191 op_code_reg_11_
*192 op_code_reg_1_
*193 op_code_reg_2_
*194 op_code_reg_3_
*195 test_lut/GEN_LUT_0__lut_reg_7_
*196 test_opt_reg_f/data_in_reg_reg_0_
*197 test_opt_reg_e/data_in_reg_reg_0_
*198 test_opt_reg_d/data_in_reg_reg_0_
*199 test_debug_data/debug_val_reg_15_
*200 test_lut/GEN_LUT_0__lut_reg_1_
*201 test_lut/GEN_LUT_0__lut_reg_2_
*202 test_lut/GEN_LUT_0__lut_reg_3_
*203 test_lut/GEN_LUT_0__lut_reg_4_
*204 test_lut/GEN_LUT_0__lut_reg_5_
*205 test_lut/GEN_LUT_0__lut_reg_6_
*206 test_debug_data/debug_val_reg_8_
*207 test_debug_data/debug_val_reg_9_
*208 test_debug_data/debug_val_reg_10_
*209 test_debug_data/debug_val_reg_11_
*210 test_debug_data/debug_val_reg_12_
*211 test_debug_data/debug_val_reg_13_
*212 test_debug_data/debug_val_reg_14_
*213 test_debug_data/net808
*214 test_debug_data/debug_val_reg_7_
*215 test_debug_data/clk_gate_debug_val_reg/latch
*216 test_debug_data/debug_val_reg_1_
*217 test_debug_data/debug_val_reg_2_
*218 test_debug_data/debug_val_reg_3_
*219 test_debug_data/debug_val_reg_4_
*220 test_debug_data/debug_val_reg_5_
*221 test_debug_data/debug_val_reg_6_
*222 n_5_net_
*223 U310
*224 irq_data
*225 test_debug_data/U20
*226 test_debug_data/n17
*227 test_debug_data/U19
*228 test_debug_data/n18
*229 test_debug_data/U10
*230 test_debug_data/n15
*231 test_debug_data/U14
*232 test_debug_data/n13
*233 test_debug_data/U18
*234 test_debug_data/n14
*235 test_debug_data/U16
*236 test_debug_data/n16
*237 test_debug_data/U12
*238 test_debug_data/n33
*239 test_debug_data/U17
*240 U40
*241 U39
*242 test_debug_data/n12
*243 test_debug_data/n22
*244 test_debug_data/n32
*245 test_debug_data/U15
*246 U42
*247 U41
*248 test_debug_data/n11
*249 test_debug_data/n21
*250 test_debug_data/n34
*251 test_debug_data/U13
*252 U36
*253 U35
*254 test_debug_data/n10
*255 test_debug_data/n20
*256 test_debug_data/n31
*257 test_debug_data/U11
*258 U38
*259 U37
*260 test_debug_data/n9
*261 test_debug_data/n19
*262 test_debug_data/n7
*263 test_debug_data/U5
*264 test_debug_data/n5
*265 test_debug_data/U9
*266 test_debug_data/n6
*267 test_debug_data/U7
*268 test_debug_data/n8
*269 test_debug_data/U3
*270 test_debug_data/n30
*271 test_debug_data/U8
*272 U48
*273 U47
*274 test_debug_data/n4
*275 test_debug_data/n26
*276 test_debug_data/n29
*277 test_debug_data/U6
*278 U50
*279 U49
*280 test_debug_data/n3
*281 test_debug_data/n25
*282 test_debug_data/n28
*283 test_debug_data/U4
*284 U44
*285 U43
*286 test_debug_data/n2
*287 test_debug_data/n24
*288 test_debug_data/n27
*289 test_debug_data/U2
*290 U46
*291 U45
*292 test_debug_data/n1
*293 test_debug_data/n23
*294 read_data_debug_data\[0\]
*295 U212
*296 read_data_debug_data\[1\]
*297 U224
*298 test_opt_reg_c/U24
*299 test_opt_reg_a/U24
*300 U348
*301 read_data_debug_data\[2\]
*302 U228
*303 test_opt_reg_c/U25
*304 test_opt_reg_a/U25
*305 U349
*306 read_data_debug_data\[3\]
*307 U232
*308 test_opt_reg_c/U26
*309 test_opt_reg_a/U26
*310 U350
*311 read_data_debug_data\[4\]
*312 U236
*313 test_opt_reg_c/U27
*314 test_opt_reg_a/U27
*315 U351
*316 read_data_debug_data\[5\]
*317 U240
*318 test_opt_reg_c/U28
*319 test_opt_reg_a/U28
*320 U352
*321 read_data_debug_data\[6\]
*322 U244
*323 test_opt_reg_c/U29
*324 test_opt_reg_a/U29
*325 U353
*326 read_data_debug_data\[7\]
*327 U248
*328 test_opt_reg_c/U30
*329 test_opt_reg_a/U30
*330 U354
*331 read_data_debug_data\[8\]
*332 U252
*333 test_opt_reg_c/U31
*334 test_opt_reg_a/U31
*335 U355
*336 read_data_debug_data\[9\]
*337 U256
*338 test_opt_reg_c/U32
*339 test_opt_reg_a/U32
*340 U356
*341 read_data_debug_data\[10\]
*342 U260
*343 test_opt_reg_c/U33
*344 test_opt_reg_a/U33
*345 U357
*346 read_data_debug_data\[11\]
*347 U264
*348 test_opt_reg_c/U34
*349 test_opt_reg_a/U34
*350 U358
*351 read_data_debug_data\[12\]
*352 U268
*353 test_opt_reg_c/U35
*354 test_opt_reg_a/U35
*355 U359
*356 read_data_debug_data\[13\]
*357 U272
*358 test_opt_reg_c/U36
*359 test_opt_reg_a/U36
*360 U360
*361 read_data_debug_data\[14\]
*362 U276
*363 test_opt_reg_c/U37
*364 test_opt_reg_a/U37
*365 U361
*366 read_data_debug_data\[15\]
*367 U280
*368 test_opt_reg_c/U38
*369 test_opt_reg_a/U38
*370 U362
*371 test_lut/net826
*372 test_lut/clk_gate_GEN_LUT_0__lut_reg/latch
*373 test_lut/N4
*374 test_lut/U5
*375 test_lut/n6
*376 test_lut/U9
*377 test_lut/U6
*378 test_lut/n5
*379 test_lut/U7
*380 res_lut
*381 U301
*382 test_lut/n4
*383 test_lut/U8
*384 op_e_p
*385 test_opt_reg_e/U4
*386 read_data_lut\[0\]
*387 U220
*388 op_f_p
*389 test_opt_reg_f/U4
*390 op_d_p
*391 test_pe_comp/U203
*392 test_pe_comp/U200
*393 test_pe_comp/U198
*394 test_pe_comp/U83
*395 test_opt_reg_d/U4
*396 U345
*397 read_data_lut\[4\]
*398 U235
*399 read_data_lut\[5\]
*400 U239
*401 read_data_lut\[1\]
*402 U223
*403 read_data_lut\[2\]
*404 U227
*405 read_data_lut\[6\]
*406 U243
*407 read_data_lut\[7\]
*408 U247
*409 read_data_lut\[3\]
*410 U231
*411 U218
*412 U205
*413 U202
*414 U183
*415 U4
*416 test_lut/n3
*417 test_lut/U4
*418 U196
*419 U185
*420 U182
*421 test_lut/n2
*422 test_lut/U3
*423 U204
*424 U198
*425 U209
*426 U206
*427 U199
*428 U186
*429 U6
*430 U189
*431 U184
*432 U201
*433 U193
*434 test_lut/n1
*435 test_lut/U2
*436 U217
*437 U197
*438 U181
*439 U188
*440 U5
*441 U192
*442 U215
*443 test_pe_comp/shift_res\[10\]
*444 test_pe_comp/test_shifter/U164
*445 test_pe_comp/U295
*446 test_pe_comp/test_shifter/n147
*447 test_pe_comp/test_shifter/U163
*448 test_pe_comp/test_shifter/n148
*449 test_pe_comp/test_shifter/U149
*450 test_pe_comp/test_shifter/U148
*451 op_b\[3\]
*452 test_opt_reg_file/U8
*453 U23
*454 test_pe_comp/test_shifter/n146
*455 test_pe_comp/test_shifter/U123
*456 test_pe_comp/test_shifter/U25
*457 test_pe_comp/test_shifter/U125
*458 test_pe_comp/test_shifter/U86
*459 test_pe_comp/test_shifter/U126
*460 test_pe_comp/test_shifter/U76
*461 test_pe_comp/test_shifter/U70
*462 test_pe_comp/test_shifter/U99
*463 test_pe_comp/test_shifter/U88
*464 test_pe_comp/test_shifter/U43
*465 test_pe_comp/test_shifter/U17
*466 test_pe_comp/test_shifter/U60
*467 test_pe_comp/test_shifter/U74
*468 test_pe_comp/test_shifter/U75
*469 test_pe_comp/test_shifter/U53
*470 test_pe_comp/test_shifter/U90
*471 test_pe_comp/test_shifter/U44
*472 test_pe_comp/test_shifter/U109
*473 test_pe_comp/test_shifter/U119
*474 test_pe_comp/test_shifter/U2
*475 test_pe_comp/test_shifter/n144
*476 test_pe_comp/test_shifter/U157
*477 test_pe_comp/test_shifter/U156
*478 test_pe_comp/test_shifter/n145
*479 test_pe_comp/test_shifter/U154
*480 test_pe_comp/test_shifter/n143
*481 test_pe_comp/test_shifter/U130
*482 test_pe_comp/test_shifter/U118
*483 test_pe_comp/test_shifter/U94
*484 test_pe_comp/test_shifter/U73
*485 test_pe_comp/test_shifter/U49
*486 test_pe_comp/test_shifter/U48
*487 test_pe_comp/test_shifter/n140
*488 test_pe_comp/test_shifter/U162
*489 test_pe_comp/test_shifter/U50
*490 test_pe_comp/n292
*491 test_pe_comp/test_shifter/U8
*492 test_pe_comp/test_shifter/U5
*493 test_pe_comp/test_shifter/U4
*494 test_pe_comp/U15
*495 test_pe_comp/test_shifter/U145
*496 test_pe_comp/test_shifter/U142
*497 test_pe_comp/test_shifter/U138
*498 test_pe_comp/test_shifter/U72
*499 test_pe_comp/test_shifter/U54
*500 test_pe_comp/test_shifter/U46
*501 test_pe_comp/test_shifter/U38
*502 test_pe_comp/test_shifter/U34
*503 test_pe_comp/test_shifter/U160
*504 test_pe_comp/test_shifter/U152
*505 test_pe_comp/test_shifter/U150
*506 test_pe_comp/test_shifter/n141
*507 test_pe_comp/test_shifter/U71
*508 test_pe_comp/shift_res\[8\]
*509 test_pe_comp/U279
*510 test_pe_comp/test_shifter/n142
*511 test_pe_comp/test_shifter/U63
*512 test_pe_comp/test_shifter/U62
*513 test_pe_comp/test_shifter/n138
*514 test_pe_comp/test_shifter/U161
*515 test_pe_comp/test_shifter/n139
*516 test_pe_comp/test_shifter/U159
*517 test_pe_comp/shift_res\[6\]
*518 test_pe_comp/U263
*519 test_pe_comp/test_shifter/n137
*520 test_pe_comp/test_shifter/U93
*521 test_pe_comp/test_shifter/U89
*522 test_pe_comp/test_shifter/n136
*523 test_pe_comp/test_shifter/U92
*524 test_pe_comp/test_shifter/n133
*525 test_pe_comp/test_shifter/U153
*526 test_pe_comp/test_shifter/U144
*527 test_pe_comp/test_shifter/U143
*528 test_pe_comp/test_shifter/n134
*529 test_pe_comp/test_shifter/U120
*530 test_pe_comp/test_shifter/n135
*531 test_pe_comp/test_shifter/U82
*532 test_pe_comp/test_shifter/U78
*533 test_pe_comp/test_shifter/n131
*534 test_pe_comp/test_shifter/U158
*535 test_pe_comp/test_shifter/n132
*536 test_pe_comp/shift_res\[5\]
*537 test_pe_comp/U255
*538 test_pe_comp/test_shifter/n129
*539 test_pe_comp/test_shifter/U155
*540 test_pe_comp/test_shifter/n130
*541 test_pe_comp/test_shifter/U136
*542 test_pe_comp/test_shifter/U100
*543 test_pe_comp/test_shifter/U56
*544 test_pe_comp/test_shifter/U55
*545 test_pe_comp/test_shifter/n128
*546 test_pe_comp/test_shifter/U128
*547 test_pe_comp/test_shifter/U111
*548 test_pe_comp/test_shifter/n127
*549 test_pe_comp/test_shifter/U29
*550 test_pe_comp/test_shifter/U79
*551 test_pe_comp/test_shifter/U147
*552 test_pe_comp/test_shifter/U1
*553 test_pe_comp/test_shifter/n124
*554 test_pe_comp/test_shifter/U77
*555 test_pe_comp/test_shifter/n125
*556 test_pe_comp/test_shifter/U127
*557 test_pe_comp/test_shifter/U115
*558 test_pe_comp/test_shifter/U58
*559 test_pe_comp/test_shifter/U30
*560 test_pe_comp/test_shifter/U19
*561 test_pe_comp/test_shifter/n126
*562 test_pe_comp/test_shifter/n121
*563 test_pe_comp/test_shifter/n122
*564 test_pe_comp/test_shifter/U117
*565 test_pe_comp/test_shifter/U116
*566 test_pe_comp/test_shifter/n123
*567 test_pe_comp/test_shifter/n118
*568 test_pe_comp/test_shifter/U151
*569 test_pe_comp/test_shifter/U57
*570 test_pe_comp/test_shifter/n119
*571 test_pe_comp/shift_res\[4\]
*572 test_pe_comp/U247
*573 test_pe_comp/test_shifter/n116
*574 test_pe_comp/test_shifter/U101
*575 test_pe_comp/test_shifter/n117
*576 test_pe_comp/test_shifter/U105
*577 test_pe_comp/test_shifter/U104
*578 test_pe_comp/shift_res\[2\]
*579 test_pe_comp/U231
*580 test_pe_comp/test_shifter/n114
*581 test_pe_comp/test_shifter/n115
*582 test_pe_comp/test_shifter/n113
*583 op_code\[6\]
*584 U7
*585 test_pe_comp/test_shifter/n112
*586 test_pe_comp/test_shifter/U35
*587 test_pe_comp/test_shifter/U37
*588 test_pe_comp/test_shifter/U140
*589 test_pe_comp/test_shifter/U95
*590 test_pe_comp/test_shifter/U61
*591 test_pe_comp/test_shifter/U51
*592 test_pe_comp/n305
*593 test_pe_comp/U30
*594 test_pe_comp/U59
*595 test_pe_comp/test_mult_add/U89
*596 op_b\[2\]
*597 test_opt_reg_file/U7
*598 U22
*599 test_pe_comp/test_shifter/n110
*600 test_pe_comp/test_shifter/U146
*601 test_pe_comp/test_shifter/n111
*602 test_pe_comp/shift_res\[1\]
*603 test_pe_comp/U223
*604 test_pe_comp/test_shifter/n109
*605 test_pe_comp/test_shifter/U129
*606 test_pe_comp/test_shifter/n108
*607 test_pe_comp/test_shifter/n106
*608 test_pe_comp/test_shifter/U80
*609 test_pe_comp/test_shifter/n107
*610 test_pe_comp/test_shifter/U91
*611 test_pe_comp/test_shifter/n105
*612 test_pe_comp/test_shifter/U47
*613 test_pe_comp/test_shifter/U102
*614 test_pe_comp/test_shifter/U81
*615 test_pe_comp/test_shifter/n103
*616 test_pe_comp/test_shifter/U52
*617 test_pe_comp/test_shifter/U40
*618 test_pe_comp/test_shifter/U26
*619 test_pe_comp/test_shifter/U20
*620 test_pe_comp/test_shifter/U6
*621 test_pe_comp/test_shifter/U141
*622 test_pe_comp/test_shifter/U132
*623 test_pe_comp/test_shifter/U122
*624 test_pe_comp/test_shifter/U112
*625 test_pe_comp/test_shifter/U96
*626 test_pe_comp/test_shifter/U83
*627 test_pe_comp/test_shifter/U67
*628 test_pe_comp/test_shifter/U64
*629 test_pe_comp/shift_res\[0\]
*630 test_pe_comp/U215
*631 test_pe_comp/test_shifter/n102
*632 test_pe_comp/test_shifter/U137
*633 test_pe_comp/test_shifter/n104
*634 test_pe_comp/test_shifter/n101
*635 test_pe_comp/test_shifter/U139
*636 test_pe_comp/test_shifter/U135
*637 test_pe_comp/shift_res\[15\]
*638 test_pe_comp/U335
*639 test_pe_comp/test_shifter/n100
*640 test_pe_comp/test_shifter/n98
*641 test_pe_comp/test_shifter/U36
*642 test_pe_comp/test_shifter/n99
*643 test_pe_comp/test_shifter/U110
*644 test_pe_comp/test_shifter/U45
*645 test_pe_comp/test_shifter/U33
*646 op_a\[15\]
*647 test_opt_reg_a/U5
*648 test_pe_comp/U48
*649 test_pe_comp/test_shifter/n97
*650 test_pe_comp/test_shifter/U131
*651 test_pe_comp/test_shifter/n96
*652 test_pe_comp/test_shifter/n95
*653 test_pe_comp/test_shifter/n94
*654 test_pe_comp/test_shifter/n93
*655 test_pe_comp/test_shifter/n91
*656 test_pe_comp/test_shifter/U134
*657 test_pe_comp/test_shifter/n92
*658 test_pe_comp/test_shifter/U114
*659 test_pe_comp/test_shifter/n89
*660 test_pe_comp/test_shifter/U133
*661 test_pe_comp/test_shifter/n90
*662 op_a\[1\]
*663 test_opt_reg_a/U8
*664 test_pe_comp/U52
*665 op_a\[14\]
*666 test_pe_comp/U172
*667 test_opt_reg_a/U21
*668 test_pe_comp/test_shifter/n88
*669 test_pe_comp/test_shifter/U39
*670 test_pe_comp/test_shifter/U27
*671 test_pe_comp/test_shifter/U21
*672 test_pe_comp/test_shifter/U10
*673 test_pe_comp/test_shifter/U7
*674 test_pe_comp/test_shifter/U121
*675 test_pe_comp/test_shifter/U113
*676 test_pe_comp/test_shifter/U97
*677 test_pe_comp/test_shifter/U84
*678 test_pe_comp/test_shifter/U68
*679 test_pe_comp/test_shifter/U65
*680 test_pe_comp/test_shifter/U41
*681 op_a\[0\]
*682 test_opt_reg_a/U7
*683 test_pe_comp/U51
*684 test_pe_comp/test_mult_add/U558
*685 test_pe_comp/GEN_ADD_0__full_add/U16
*686 test_pe_comp/U219
*687 test_pe_comp/U207
*688 test_pe_comp/U22
*689 test_pe_comp/test_shifter/n84
*690 test_pe_comp/test_shifter/U106
*691 test_pe_comp/test_shifter/n85
*692 test_pe_comp/shift_res\[14\]
*693 test_pe_comp/U327
*694 test_pe_comp/test_shifter/n83
*695 test_pe_comp/test_shifter/n82
*696 test_pe_comp/test_shifter/n80
*697 test_pe_comp/test_shifter/n79
*698 test_pe_comp/test_shifter/n78
*699 test_pe_comp/test_shifter/U24
*700 test_pe_comp/test_shifter/n76
*701 test_pe_comp/test_shifter/U28
*702 test_pe_comp/test_shifter/n72
*703 test_pe_comp/test_shifter/U124
*704 test_pe_comp/test_shifter/n73
*705 test_pe_comp/test_shifter/n74
*706 test_pe_comp/test_shifter/U11
*707 op_a\[13\]
*708 test_pe_comp/U323
*709 test_pe_comp/U316
*710 test_pe_comp/U67
*711 test_opt_reg_a/U20
*712 test_pe_comp/U171
*713 test_pe_comp/test_mult_add/U52
*714 test_pe_comp/test_mult_add/U14
*715 test_pe_comp/test_mult_add/U10
*716 test_pe_comp/GEN_ADD_0__full_add/U3
*717 test_pe_comp/test_shifter/n71
*718 test_pe_comp/test_shifter/n70
*719 op_a\[2\]
*720 test_opt_reg_a/U9
*721 test_pe_comp/U55
*722 test_pe_comp/test_shifter/n68
*723 test_pe_comp/test_shifter/n69
*724 test_pe_comp/shift_res\[13\]
*725 test_pe_comp/U319
*726 test_pe_comp/test_shifter/n66
*727 test_pe_comp/test_shifter/n65
*728 test_pe_comp/test_shifter/n64
*729 test_pe_comp/test_shifter/n62
*730 test_pe_comp/test_shifter/U87
*731 test_pe_comp/test_shifter/n63
*732 test_pe_comp/test_shifter/U98
*733 test_pe_comp/test_shifter/n60
*734 test_pe_comp/test_shifter/n61
*735 op_a\[3\]
*736 test_pe_comp/U377
*737 test_opt_reg_a/U10
*738 test_pe_comp/test_mult_add/U91
*739 op_a\[12\]
*740 test_pe_comp/U315
*741 test_pe_comp/U308
*742 test_pe_comp/U64
*743 test_pe_comp/U166
*744 test_opt_reg_a/U19
*745 test_pe_comp/test_mult_add/U8
*746 test_pe_comp/GEN_ADD_0__full_add/U4
*747 test_pe_comp/test_shifter/n59
*748 test_pe_comp/shift_res\[12\]
*749 test_pe_comp/test_shifter/U107
*750 test_pe_comp/U311
*751 test_pe_comp/test_shifter/n58
*752 test_pe_comp/test_shifter/U103
*753 test_pe_comp/test_shifter/n57
*754 test_pe_comp/test_shifter/n56
*755 test_pe_comp/test_shifter/n55
*756 test_pe_comp/test_shifter/n54
*757 test_pe_comp/shift_res\[11\]
*758 test_pe_comp/U303
*759 test_pe_comp/test_shifter/n53
*760 test_pe_comp/test_shifter/n52
*761 test_pe_comp/test_shifter/n51
*762 test_pe_comp/test_shifter/n50
*763 test_pe_comp/test_shifter/n49
*764 test_pe_comp/test_shifter/U85
*765 test_pe_comp/test_shifter/n47
*766 test_pe_comp/test_shifter/n48
*767 op_a\[5\]
*768 test_opt_reg_a/U12
*769 test_pe_comp/U63
*770 op_a\[10\]
*771 test_pe_comp/GEN_ADD_0__full_add/U6
*772 test_pe_comp/U299
*773 test_pe_comp/U292
*774 test_pe_comp/U53
*775 test_pe_comp/U102
*776 test_opt_reg_a/U17
*777 test_pe_comp/test_mult_add/U51
*778 test_pe_comp/test_mult_add/U125
*779 test_pe_comp/test_mult_add/U20
*780 op_a\[11\]
*781 test_opt_reg_a/U18
*782 test_pe_comp/U117
*783 op_a\[4\]
*784 test_pe_comp/GEN_ADD_0__full_add/U12
*785 test_pe_comp/U251
*786 test_pe_comp/U244
*787 test_pe_comp/U34
*788 test_opt_reg_a/U22
*789 test_pe_comp/U62
*790 test_pe_comp/test_mult_add/U381
*791 test_pe_comp/test_mult_add/U93
*792 test_pe_comp/test_shifter/n46
*793 test_pe_comp/test_shifter/U15
*794 test_pe_comp/test_shifter/U14
*795 test_pe_comp/shift_res\[9\]
*796 test_pe_comp/U287
*797 test_pe_comp/test_shifter/n45
*798 test_pe_comp/test_shifter/n44
*799 test_pe_comp/test_shifter/n43
*800 test_pe_comp/test_shifter/n42
*801 test_pe_comp/test_shifter/n40
*802 test_pe_comp/test_shifter/U18
*803 test_pe_comp/test_shifter/n41
*804 test_pe_comp/test_shifter/n38
*805 test_pe_comp/test_shifter/U66
*806 test_pe_comp/test_shifter/n39
*807 test_pe_comp/test_shifter/n37
*808 test_pe_comp/test_shifter/U69
*809 test_pe_comp/test_shifter/n35
*810 test_pe_comp/test_shifter/n36
*811 op_a\[7\]
*812 test_pe_comp/U275
*813 test_pe_comp/U268
*814 test_pe_comp/U43
*815 test_opt_reg_a/U14
*816 test_pe_comp/U68
*817 test_pe_comp/test_mult_add/U228
*818 test_pe_comp/test_mult_add/U86
*819 test_pe_comp/test_mult_add/U84
*820 test_pe_comp/GEN_ADD_0__full_add/U9
*821 op_a\[8\]
*822 test_opt_reg_a/U15
*823 test_pe_comp/U69
*824 op_a\[6\]
*825 test_pe_comp/U267
*826 test_pe_comp/U260
*827 test_pe_comp/U40
*828 test_opt_reg_a/U13
*829 test_pe_comp/U66
*830 test_pe_comp/test_mult_add/U81
*831 test_pe_comp/GEN_ADD_0__full_add/U10
*832 op_a\[9\]
*833 test_pe_comp/U291
*834 test_pe_comp/U284
*835 test_pe_comp/U50
*836 test_opt_reg_a/U16
*837 test_pe_comp/U84
*838 test_pe_comp/test_mult_add/U18
*839 test_pe_comp/GEN_ADD_0__full_add/U7
*840 test_pe_comp/test_shifter/n34
*841 test_pe_comp/test_shifter/U32
*842 test_pe_comp/test_shifter/n33
*843 test_pe_comp/test_shifter/n31
*844 test_pe_comp/test_shifter/U22
*845 test_pe_comp/test_shifter/n32
*846 test_pe_comp/test_shifter/U42
*847 test_pe_comp/test_shifter/n30
*848 test_pe_comp/test_shifter/n29
*849 test_pe_comp/shift_res\[7\]
*850 test_pe_comp/U271
*851 test_pe_comp/test_shifter/n28
*852 test_pe_comp/test_shifter/n27
*853 test_pe_comp/test_shifter/n25
*854 test_pe_comp/test_shifter/n26
*855 test_pe_comp/test_shifter/n23
*856 test_pe_comp/test_shifter/n24
*857 test_pe_comp/test_shifter/n22
*858 test_pe_comp/test_shifter/U59
*859 test_pe_comp/test_shifter/n20
*860 test_pe_comp/test_shifter/n21
*861 test_pe_comp/test_shifter/n19
*862 test_pe_comp/test_shifter/n17
*863 test_pe_comp/test_shifter/n14
*864 test_pe_comp/test_shifter/n15
*865 test_pe_comp/shift_res\[3\]
*866 test_pe_comp/U239
*867 test_pe_comp/test_shifter/n16
*868 test_pe_comp/test_shifter/n13
*869 op_b\[0\]
*870 test_opt_reg_file/U6
*871 U21
*872 test_pe_comp/test_shifter/n12
*873 test_pe_comp/test_shifter/U31
*874 test_pe_comp/test_shifter/n10
*875 test_pe_comp/test_shifter/n11
*876 test_pe_comp/test_shifter/n8
*877 test_pe_comp/test_shifter/n9
*878 test_pe_comp/test_shifter/n7
*879 test_pe_comp/test_shifter/U23
*880 test_pe_comp/test_shifter/n5
*881 test_pe_comp/test_shifter/U13
*882 test_pe_comp/test_shifter/U3
*883 test_pe_comp/test_shifter/n6
*884 test_pe_comp/test_shifter/U9
*885 test_pe_comp/test_shifter/n3
*886 test_pe_comp/test_shifter/n4
*887 test_pe_comp/test_shifter/n1
*888 test_pe_comp/test_shifter/n2
*889 test_pe_comp/test_mult_add/n753
*890 test_pe_comp/test_mult_add/U662
*891 test_pe_comp/test_mult_add/U659
*892 test_pe_comp/test_mult_add/U626
*893 test_pe_comp/test_mult_add/U46
*894 test_pe_comp/test_mult_add/n752
*895 test_pe_comp/test_mult_add/U658
*896 test_pe_comp/test_mult_add/n751
*897 test_pe_comp/test_mult_add/U661
*898 test_pe_comp/mult_c_out
*899 test_pe_comp/U189
*900 test_pe_comp/test_mult_add/n750
*901 test_pe_comp/test_mult_add/n749
*902 test_pe_comp/test_mult_add/U660
*903 test_pe_comp/test_mult_add/n748
*904 test_pe_comp/test_mult_add/U627
*905 test_pe_comp/test_mult_add/n747
*906 test_pe_comp/test_mult_add/U45
*907 test_pe_comp/test_mult_add/n744
*908 test_pe_comp/test_mult_add/U1
*909 test_pe_comp/test_mult_add/U12
*910 test_pe_comp/test_mult_add/U622
*911 test_pe_comp/test_mult_add/U619
*912 test_pe_comp/test_mult_add/U265
*913 test_pe_comp/test_mult_add/U186
*914 test_pe_comp/test_mult_add/U163
*915 test_pe_comp/test_mult_add/U70
*916 test_pe_comp/test_mult_add/U68
*917 test_pe_comp/test_mult_add/n743
*918 test_pe_comp/test_mult_add/U37
*919 test_pe_comp/test_mult_add/U33
*920 test_pe_comp/test_mult_add/U2
*921 test_pe_comp/test_mult_add/U23
*922 test_pe_comp/test_mult_add/U113
*923 test_pe_comp/test_mult_add/U104
*924 test_pe_comp/test_mult_add/U101
*925 test_pe_comp/test_mult_add/U97
*926 test_pe_comp/test_mult_add/U67
*927 test_pe_comp/test_mult_add/U50
*928 test_pe_comp/test_mult_add/U43
*929 test_pe_comp/test_mult_add/U294
*930 test_pe_comp/test_mult_add/U209
*931 test_pe_comp/test_mult_add/U200
*932 test_pe_comp/test_mult_add/U197
*933 test_pe_comp/test_mult_add/U189
*934 test_pe_comp/test_mult_add/U172
*935 test_pe_comp/test_mult_add/U156
*936 test_pe_comp/test_mult_add/n741
*937 test_pe_comp/test_mult_add/U657
*938 test_pe_comp/test_mult_add/U559
*939 test_pe_comp/test_mult_add/n740
*940 test_pe_comp/test_mult_add/U656
*941 op_c\[0\]
*942 test_pe_comp/GEN_ADD_1__full_add/U16
*943 test_pe_comp/U175
*944 test_pe_comp/U206
*945 test_opt_reg_c/U6
*946 test_pe_comp/mult_res\[0\]
*947 test_pe_comp/U216
*948 test_pe_comp/test_mult_add/n739
*949 test_pe_comp/test_mult_add/U561
*950 op_c\[1\]
*951 test_pe_comp/GEN_ADD_1__full_add/U15
*952 test_pe_comp/U176
*953 test_pe_comp/U209
*954 test_opt_reg_c/U7
*955 test_pe_comp/test_mult_add/n738
*956 test_pe_comp/test_mult_add/U655
*957 test_pe_comp/mult_res\[1\]
*958 test_pe_comp/U224
*959 test_pe_comp/test_mult_add/n737
*960 test_pe_comp/test_mult_add/U565
*961 op_c\[2\]
*962 test_pe_comp/GEN_ADD_1__full_add/U14
*963 test_pe_comp/U174
*964 test_pe_comp/U173
*965 test_opt_reg_c/U8
*966 test_pe_comp/test_mult_add/n735
*967 test_pe_comp/test_mult_add/U654
*968 test_pe_comp/mult_res\[2\]
*969 test_pe_comp/U232
*970 test_pe_comp/test_mult_add/n734
*971 test_pe_comp/test_mult_add/U569
*972 test_pe_comp/test_mult_add/n736
*973 test_pe_comp/test_mult_add/U557
*974 test_pe_comp/test_mult_add/n732
*975 test_pe_comp/test_mult_add/U653
*976 test_pe_comp/mult_res\[3\]
*977 test_pe_comp/U240
*978 test_pe_comp/test_mult_add/n731
*979 test_pe_comp/test_mult_add/U573
*980 test_pe_comp/test_mult_add/n733
*981 test_pe_comp/test_mult_add/U556
*982 test_pe_comp/test_mult_add/n729
*983 test_pe_comp/test_mult_add/U652
*984 test_pe_comp/mult_res\[4\]
*985 test_pe_comp/U248
*986 test_pe_comp/test_mult_add/n728
*987 test_pe_comp/test_mult_add/U577
*988 test_pe_comp/test_mult_add/n730
*989 test_pe_comp/test_mult_add/U555
*990 test_pe_comp/test_mult_add/n726
*991 test_pe_comp/test_mult_add/U651
*992 test_pe_comp/mult_res\[5\]
*993 test_pe_comp/U256
*994 test_pe_comp/test_mult_add/n725
*995 test_pe_comp/test_mult_add/U581
*996 test_pe_comp/test_mult_add/n727
*997 test_pe_comp/test_mult_add/U554
*998 test_pe_comp/test_mult_add/n723
*999 test_pe_comp/test_mult_add/U650
*1000 test_pe_comp/mult_res\[6\]
*1001 test_pe_comp/U264
*1002 test_pe_comp/test_mult_add/n722
*1003 test_pe_comp/test_mult_add/U585
*1004 test_pe_comp/test_mult_add/n724
*1005 test_pe_comp/test_mult_add/U553
*1006 test_pe_comp/test_mult_add/n720
*1007 test_pe_comp/test_mult_add/U649
*1008 test_pe_comp/mult_res\[7\]
*1009 test_pe_comp/U272
*1010 test_pe_comp/test_mult_add/n719
*1011 test_pe_comp/test_mult_add/U589
*1012 test_pe_comp/test_mult_add/n721
*1013 test_pe_comp/test_mult_add/U552
*1014 test_pe_comp/test_mult_add/n717
*1015 test_pe_comp/test_mult_add/U648
*1016 test_pe_comp/mult_res\[8\]
*1017 test_pe_comp/U280
*1018 test_pe_comp/test_mult_add/n716
*1019 test_pe_comp/test_mult_add/U593
*1020 test_pe_comp/test_mult_add/n718
*1021 test_pe_comp/test_mult_add/U551
*1022 test_pe_comp/test_mult_add/n714
*1023 test_pe_comp/test_mult_add/U647
*1024 test_pe_comp/mult_res\[9\]
*1025 test_pe_comp/U288
*1026 test_pe_comp/U221
*1027 test_pe_comp/test_mult_add/n713
*1028 test_pe_comp/test_mult_add/U597
*1029 test_pe_comp/test_mult_add/n715
*1030 test_pe_comp/test_mult_add/U550
*1031 test_pe_comp/test_mult_add/n711
*1032 test_pe_comp/test_mult_add/U646
*1033 test_pe_comp/mult_res\[10\]
*1034 test_pe_comp/U296
*1035 test_pe_comp/U229
*1036 test_pe_comp/test_mult_add/n710
*1037 test_pe_comp/test_mult_add/U601
*1038 test_pe_comp/test_mult_add/n712
*1039 test_pe_comp/test_mult_add/U549
*1040 test_pe_comp/test_mult_add/n708
*1041 test_pe_comp/test_mult_add/U645
*1042 test_pe_comp/mult_res\[11\]
*1043 test_pe_comp/U304
*1044 test_pe_comp/U237
*1045 test_pe_comp/test_mult_add/n707
*1046 test_pe_comp/test_mult_add/U605
*1047 test_pe_comp/test_mult_add/n709
*1048 test_pe_comp/test_mult_add/U548
*1049 test_pe_comp/test_mult_add/n705
*1050 test_pe_comp/test_mult_add/U644
*1051 test_pe_comp/mult_res\[12\]
*1052 test_pe_comp/U312
*1053 test_pe_comp/U245
*1054 test_pe_comp/test_mult_add/n704
*1055 test_pe_comp/test_mult_add/U609
*1056 test_pe_comp/test_mult_add/n706
*1057 test_pe_comp/test_mult_add/U547
*1058 test_pe_comp/test_mult_add/n702
*1059 test_pe_comp/test_mult_add/U643
*1060 test_pe_comp/mult_res\[13\]
*1061 test_pe_comp/U320
*1062 test_pe_comp/U253
*1063 test_pe_comp/test_mult_add/n701
*1064 test_pe_comp/test_mult_add/U613
*1065 test_pe_comp/test_mult_add/n703
*1066 test_pe_comp/test_mult_add/U546
*1067 test_pe_comp/test_mult_add/n699
*1068 test_pe_comp/test_mult_add/U642
*1069 test_pe_comp/mult_res\[14\]
*1070 test_pe_comp/U328
*1071 test_pe_comp/U261
*1072 test_pe_comp/test_mult_add/n698
*1073 test_pe_comp/test_mult_add/U617
*1074 test_pe_comp/test_mult_add/n700
*1075 test_pe_comp/test_mult_add/U545
*1076 test_pe_comp/test_mult_add/n696
*1077 test_pe_comp/test_mult_add/U641
*1078 test_pe_comp/mult_res\[15\]
*1079 test_pe_comp/U334
*1080 test_pe_comp/U269
*1081 test_pe_comp/U115
*1082 test_pe_comp/U108
*1083 test_pe_comp/test_mult_add/n695
*1084 test_pe_comp/test_mult_add/U621
*1085 test_pe_comp/test_mult_add/n697
*1086 test_pe_comp/test_mult_add/U544
*1087 test_pe_comp/test_mult_add/n692
*1088 test_pe_comp/test_mult_add/U640
*1089 test_pe_comp/mult_res\[16\]
*1090 test_pe_comp/U277
*1091 test_pe_comp/U210
*1092 test_pe_comp/U119
*1093 test_pe_comp/test_mult_add/n694
*1094 test_pe_comp/test_mult_add/U480
*1095 test_pe_comp/test_mult_add/n689
*1096 test_pe_comp/test_mult_add/U639
*1097 test_pe_comp/test_mult_add/n693
*1098 test_pe_comp/mult_res\[17\]
*1099 test_pe_comp/U285
*1100 test_pe_comp/test_mult_add/n691
*1101 test_pe_comp/test_mult_add/U462