*SPEF "1481-1998"
*DESIGN "test_pe"
*DATE "Thu Mar 14 07:08:07 2019"
*VENDOR "Synopsys, Inc."
*PROGRAM "icc_shell"
*VERSION "M-2016.12-SP2"
*DESIGN_FLOW "PIN_CAP NONE"
*DIVIDER /
*DELIMITER :
*BUS_DELIMITER [ ]
*T_UNIT 1 NS
*C_UNIT 1 FF
*R_UNIT 1 OHM
*L_UNIT 1 HENRY

*NAME_MAP
*1 cfg_d[0]
*2 VDD
*3 VSS
*4 cfg_d[8]
*5 cfg_d[7]
*6 cfg_d[6]
*7 cfg_d[5]
*8 cfg_d[4]
*9 cfg_d[3]
*10 cfg_d[2]
*11 cfg_d[1]
*12 cfg_d[16]
*13 cfg_d[15]
*14 cfg_d[14]
*15 cfg_d[13]
*16 cfg_d[12]
*17 cfg_d[11]
*18 cfg_d[10]
*19 cfg_d[9]
*20 cfg_d[24]
*21 cfg_d[23]
*22 cfg_d[22]
*23 cfg_d[21]
*24 cfg_d[20]
*25 cfg_d[19]
*26 cfg_d[18]
*27 cfg_d[17]
*28 cfg_a[0]
*29 cfg_d[31]
*30 cfg_d[30]
*31 cfg_d[29]
*32 cfg_d[28]
*33 cfg_d[27]
*34 cfg_d[26]
*35 cfg_d[25]
*36 data0[0]
*37 cfg_a[7]
*38 cfg_a[6]
*39 cfg_a[5]
*40 cfg_a[4]
*41 cfg_a[3]
*42 cfg_a[2]
*43 cfg_a[1]
*44 data0[8]
*45 data0[7]
*46 data0[6]
*47 data0[5]
*48 data0[4]
*49 data0[3]
*50 data0[2]
*51 data0[1]
*52 data1[0]
*53 data0[15]
*54 data0[14]
*55 data0[13]
*56 data0[12]
*57 data0[11]
*58 data0[10]
*59 data0[9]
*60 data1[8]
*61 data1[7]
*62 data1[6]
*63 data1[5]
*64 data1[4]
*65 data1[3]
*66 data1[2]
*67 data1[1]
*68 data2[0]
*69 data1[15]
*70 data1[14]
*71 data1[13]
*72 data1[12]
*73 data1[11]
*74 data1[10]
*75 data1[9]
*76 data2[8]
*77 data2[7]
*78 data2[6]
*79 data2[5]
*80 data2[4]
*81 data2[3]
*82 data2[2]
*83 data2[1]
*84 res[0]
*85 data2[15]
*86 data2[14]
*87 data2[13]
*88 data2[12]
*89 data2[11]
*90 data2[10]
*91 data2[9]
*92 res[8]
*93 res[7]
*94 res[6]
*95 res[5]
*96 res[4]
*97 res[3]
*98 res[2]
*99 res[1]
*100 read_data[0]
*101 res[15]
*102 res[14]
*103 res[13]
*104 res[12]
*105 res[11]
*106 res[10]
*107 res[9]
*108 read_data[8]
*109 read_data[7]
*110 read_data[6]
*111 read_data[5]
*112 read_data[4]
*113 read_data[3]
*114 read_data[2]
*115 read_data[1]
*116 read_data[16]
*117 read_data[15]
*118 read_data[14]
*119 read_data[13]
*120 read_data[12]
*121 read_data[11]
*122 read_data[10]
*123 read_data[9]
*124 read_data[24]
*125 read_data[23]
*126 read_data[22]
*127 read_data[21]
*128 read_data[20]
*129 read_data[19]
*130 read_data[18]
*131 read_data[17]
*132 clk
*133 read_data[31]
*134 read_data[30]
*135 read_data[29]
*136 read_data[28]
*137 read_data[27]
*138 read_data[26]
*139 read_data[25]
*140 res_p
*141 irq
*142 bit2
*143 bit1
*144 bit0
*145 cfg_en
*146 clk_en
*147 rst_n
*148 INVX8_LVT_G1B13I1
*149 clk_gate_op_code_reg/latch
*150 net790
*151 NBUFFX4_LVT_G2B1I1
*152 U307
*153 N31
*154 U309
*155 U347
*156 op_code_reg_0_
*157 test_debug_bit/U5
*158 test_debug_data/debug_val_reg_0_
*159 test_lut/GEN_LUT_0__lut_reg_0_
*160 test_opt_reg_f/U6
*161 test_opt_reg_e/U6
*162 test_opt_reg_d/U6
*163 test_opt_reg_c/U23
*164 test_opt_reg_a/U23
*165 test_debug_bit/n1
*166 test_debug_bit/U4
*167 test_debug_bit/n4
*168 test_debug_bit/U1
*169 read_data_debug_bit_0_
*170 test_debug_bit/U2
*171 test_debug_bit/debug_val_reg_0_
*172 U207
*173 n_6_net_
*174 U195
*175 irq_bit
*176 U311
*177 U55
*178 U3
*179 U1
*180 U2
*181 test_debug_data/net808
*182 test_debug_data/debug_val_reg_15_
*183 test_debug_data/debug_val_reg_7_
*184 test_debug_data/debug_val_reg_8_
*185 test_debug_data/debug_val_reg_9_
*186 test_debug_data/debug_val_reg_10_
*187 test_debug_data/debug_val_reg_11_
*188 test_debug_data/debug_val_reg_12_
*189 test_debug_data/debug_val_reg_13_
*190 test_debug_data/debug_val_reg_14_
*191 test_debug_data/clk_gate_debug_val_reg/latch
*192 test_debug_data/debug_val_reg_1_
*193 test_debug_data/debug_val_reg_2_
*194 test_debug_data/debug_val_reg_3_
*195 test_debug_data/debug_val_reg_4_
*196 test_debug_data/debug_val_reg_5_
*197 test_debug_data/debug_val_reg_6_
*198 n_5_net_
*199 U310
*200 irq_data
*201 test_debug_data/U20
*202 test_debug_data/n17
*203 test_debug_data/U19
*204 test_debug_data/n18
*205 test_debug_data/U10
*206 test_debug_data/n15
*207 test_debug_data/U14
*208 test_debug_data/n13
*209 test_debug_data/U18
*210 test_debug_data/n14
*211 test_debug_data/U16
*212 test_debug_data/n16
*213 test_debug_data/U12
*214 test_debug_data/n33
*215 test_debug_data/U17
*216 U43
*217 U42
*218 test_debug_data/n12
*219 test_debug_data/n22
*220 test_debug_data/U1
*221 test_debug_data/n32
*222 test_debug_data/U15
*223 U45
*224 U44
*225 test_debug_data/n11
*226 test_debug_data/n21
*227 test_debug_data/n34
*228 test_debug_data/U21
*229 test_debug_data/U13
*230 U39
*231 U38
*232 test_debug_data/n10
*233 test_debug_data/n20
*234 test_debug_data/n31
*235 test_debug_data/U11
*236 U41
*237 U40
*238 test_debug_data/n9
*239 test_debug_data/n19
*240 test_debug_data/n7
*241 test_debug_data/U5
*242 test_debug_data/n5
*243 test_debug_data/U9
*244 test_debug_data/n6
*245 test_debug_data/U7
*246 test_debug_data/n8
*247 test_debug_data/U3
*248 test_debug_data/n30
*249 test_debug_data/U8
*250 U52
*251 U50
*252 test_debug_data/n4
*253 test_debug_data/n26
*254 test_debug_data/n29
*255 test_debug_data/U22
*256 test_debug_data/U6
*257 U54
*258 U65
*259 test_debug_data/n3
*260 test_debug_data/n25
*261 test_debug_data/n28
*262 test_debug_data/U4
*263 U47
*264 U46
*265 test_debug_data/n2
*266 test_debug_data/n24
*267 test_debug_data/n27
*268 test_debug_data/U2
*269 U49
*270 U48
*271 test_debug_data/n1
*272 test_debug_data/n23
*273 read_data_debug_data\[0\]
*274 U212
*275 read_data_debug_data\[1\]
*276 U224
*277 test_lut/GEN_LUT_0__lut_reg_1_
*278 test_opt_reg_c/U24
*279 test_opt_reg_a/U24
*280 U348
*281 op_code_reg_1_
*282 read_data_debug_data\[2\]
*283 U228
*284 test_lut/GEN_LUT_0__lut_reg_2_
*285 test_opt_reg_c/U25
*286 test_opt_reg_a/U25
*287 U349
*288 op_code_reg_2_
*289 read_data_debug_data\[3\]
*290 U232
*291 test_lut/GEN_LUT_0__lut_reg_3_
*292 test_opt_reg_c/U26
*293 test_opt_reg_a/U26
*294 U350
*295 op_code_reg_3_
*296 read_data_debug_data\[4\]
*297 U236
*298 test_lut/GEN_LUT_0__lut_reg_4_
*299 test_opt_reg_c/U27
*300 test_opt_reg_a/U27
*301 U351
*302 op_code_reg_4_
*303 read_data_debug_data\[5\]
*304 U240
*305 test_lut/GEN_LUT_0__lut_reg_5_
*306 test_opt_reg_c/U28
*307 test_opt_reg_a/U28
*308 U352
*309 op_code_reg_5_
*310 read_data_debug_data\[6\]
*311 U244
*312 test_lut/GEN_LUT_0__lut_reg_6_
*313 test_opt_reg_c/U29
*314 test_opt_reg_a/U29
*315 U353
*316 op_code_reg_6_
*317 read_data_debug_data\[7\]
*318 U248
*319 test_lut/GEN_LUT_0__lut_reg_7_
*320 test_opt_reg_c/U30
*321 test_opt_reg_a/U30
*322 U354
*323 op_code_reg_7_
*324 read_data_debug_data\[8\]
*325 U252
*326 test_opt_reg_c/U31
*327 test_opt_reg_a/U31
*328 U355
*329 op_code_reg_8_
*330 read_data_debug_data\[9\]
*331 U256
*332 test_opt_reg_c/U32
*333 test_opt_reg_a/U32
*334 U356
*335 op_code_reg_9_
*336 read_data_debug_data\[10\]
*337 U260
*338 test_opt_reg_c/U33
*339 test_opt_reg_a/U33
*340 U357
*341 op_code_reg_10_
*342 read_data_debug_data\[11\]
*343 U264
*344 test_opt_reg_c/U34
*345 test_opt_reg_a/U34
*346 U358
*347 op_code_reg_11_
*348 read_data_debug_data\[12\]
*349 U268
*350 test_opt_reg_c/U35
*351 test_opt_reg_a/U35
*352 U359
*353 op_code_reg_12_
*354 read_data_debug_data\[13\]
*355 U272
*356 test_opt_reg_c/U36
*357 test_opt_reg_a/U36
*358 U360
*359 op_code_reg_13_
*360 read_data_debug_data\[14\]
*361 U276
*362 test_opt_reg_c/U37
*363 test_opt_reg_a/U37
*364 U361
*365 op_code_reg_14_
*366 read_data_debug_data\[15\]
*367 U280
*368 test_opt_reg_c/U38
*369 test_opt_reg_a/U38
*370 U362
*371 op_code_reg_15_
*372 test_lut/net826
*373 test_lut/clk_gate_GEN_LUT_0__lut_reg/latch
*374 test_lut/N4
*375 test_lut/U5
*376 test_lut/n6
*377 test_lut/U9
*378 test_lut/U6
*379 test_lut/n5
*380 test_lut/U7
*381 res_lut
*382 U301
*383 test_lut/n4
*384 test_lut/U8
*385 op_e_p
*386 test_opt_reg_e/U4
*387 read_data_lut\[0\]
*388 U220
*389 op_f_p
*390 test_opt_reg_f/U4
*391 op_d_p
*392 test_pe_comp/U203
*393 test_pe_comp/U200
*394 test_pe_comp/U198
*395 test_pe_comp/U83
*396 test_opt_reg_d/U4
*397 U345
*398 read_data_lut\[4\]
*399 U235
*400 read_data_lut\[5\]
*401 U239
*402 read_data_lut\[1\]
*403 U223
*404 read_data_lut\[2\]
*405 U227
*406 read_data_lut\[6\]
*407 U243
*408 read_data_lut\[7\]
*409 U247
*410 read_data_lut\[3\]
*411 U231
*412 U218
*413 U205
*414 U202
*415 U183
*416 U4
*417 test_lut/n3
*418 test_lut/U4
*419 U196
*420 U185
*421 U182
*422 test_lut/n2
*423 test_lut/U3
*424 U204
*425 U198
*426 U209
*427 U206
*428 U199
*429 U186
*430 U6
*431 U189
*432 U184
*433 U201
*434 U193
*435 test_lut/n1
*436 test_lut/U2
*437 U217
*438 U197
*439 U181
*440 U188
*441 U5
*442 U192
*443 U215
*444 test_pe_comp/shift_res\[10\]
*445 test_pe_comp/test_shifter/U164
*446 test_pe_comp/U295
*447 test_pe_comp/test_shifter/n147
*448 test_pe_comp/test_shifter/U163
*449 test_pe_comp/test_shifter/n148
*450 test_pe_comp/test_shifter/U149
*451 test_pe_comp/test_shifter/U148
*452 op_b\[3\]
*453 test_opt_reg_file/U8
*454 U24
*455 test_pe_comp/test_shifter/n144
*456 test_pe_comp/test_shifter/U157
*457 test_pe_comp/test_shifter/U156
*458 test_pe_comp/test_shifter/n145
*459 test_pe_comp/test_shifter/U154
*460 test_pe_comp/test_shifter/n143
*461 test_pe_comp/test_shifter/U130
*462 test_pe_comp/test_shifter/U118
*463 test_pe_comp/test_shifter/U94
*464 test_pe_comp/test_shifter/U73
*465 test_pe_comp/test_shifter/U49
*466 test_pe_comp/test_shifter/U48
*467 test_pe_comp/test_shifter/n140
*468 test_pe_comp/test_shifter/U162
*469 test_pe_comp/test_shifter/U50
*470 test_pe_comp/n292
*471 test_pe_comp/test_shifter/U8
*472 test_pe_comp/test_shifter/U5
*473 test_pe_comp/test_shifter/U4
*474 test_pe_comp/U15
*475 test_pe_comp/test_shifter/U145
*476 test_pe_comp/test_shifter/U142
*477 test_pe_comp/test_shifter/U138
*478 test_pe_comp/test_shifter/U72
*479 test_pe_comp/test_shifter/U54
*480 test_pe_comp/test_shifter/U46
*481 test_pe_comp/test_shifter/U38
*482 test_pe_comp/test_shifter/U34
*483 test_pe_comp/test_shifter/U160
*484 test_pe_comp/test_shifter/U152
*485 test_pe_comp/test_shifter/U150
*486 test_pe_comp/test_shifter/n141
*487 test_pe_comp/test_shifter/U71
*488 test_pe_comp/shift_res\[8\]
*489 test_pe_comp/U279
*490 test_pe_comp/test_shifter/n142
*491 test_pe_comp/test_shifter/U63
*492 test_pe_comp/test_shifter/U62
*493 test_pe_comp/test_shifter/n138
*494 test_pe_comp/test_shifter/U161
*495 test_pe_comp/test_shifter/n139
*496 test_pe_comp/test_shifter/U159
*497 test_pe_comp/shift_res\[6\]
*498 test_pe_comp/U263
*499 test_pe_comp/test_shifter/n137
*500 test_pe_comp/test_shifter/U93
*501 test_pe_comp/test_shifter/U89
*502 test_pe_comp/test_shifter/n136
*503 test_pe_comp/test_shifter/U92
*504 test_pe_comp/test_shifter/n133
*505 test_pe_comp/test_shifter/U153
*506 test_pe_comp/test_shifter/U144
*507 test_pe_comp/test_shifter/U143
*508 test_pe_comp/test_shifter/n134
*509 test_pe_comp/test_shifter/U120
*510 test_pe_comp/test_shifter/U119
*511 test_pe_comp/test_shifter/n135
*512 test_pe_comp/test_shifter/U82
*513 test_pe_comp/test_shifter/U78
*514 test_pe_comp/test_shifter/n131
*515 test_pe_comp/test_shifter/U158
*516 test_pe_comp/test_shifter/n132
*517 test_pe_comp/shift_res\[5\]
*518 test_pe_comp/U255
*519 test_pe_comp/test_shifter/n129
*520 test_pe_comp/test_shifter/U155
*521 test_pe_comp/test_shifter/n130
*522 test_pe_comp/test_shifter/U136
*523 test_pe_comp/test_shifter/U100
*524 test_pe_comp/test_shifter/U56
*525 test_pe_comp/test_shifter/U55
*526 test_pe_comp/test_shifter/n128
*527 test_pe_comp/test_shifter/U128
*528 test_pe_comp/test_shifter/U111
*529 test_pe_comp/test_shifter/U75
*530 test_pe_comp/test_shifter/n127
*531 test_pe_comp/test_shifter/U123
*532 test_pe_comp/test_shifter/U70
*533 test_pe_comp/test_shifter/U86
*534 test_pe_comp/test_shifter/U25
*535 test_pe_comp/test_shifter/U126
*536 test_pe_comp/test_shifter/U125
*537 test_pe_comp/test_shifter/U76
*538 test_pe_comp/test_shifter/U99
*539 test_pe_comp/test_shifter/U88
*540 test_pe_comp/test_shifter/U17
*541 test_pe_comp/test_shifter/U43
*542 test_pe_comp/test_shifter/U53
*543 test_pe_comp/test_shifter/U74
*544 test_pe_comp/test_shifter/U60
*545 test_pe_comp/test_shifter/U90
*546 test_pe_comp/test_shifter/U109
*547 test_pe_comp/test_shifter/U44
*548 test_pe_comp/test_shifter/U2
*549 test_pe_comp/test_shifter/n124
*550 test_pe_comp/test_shifter/U77
*551 test_pe_comp/test_shifter/n125
*552 test_pe_comp/test_shifter/U127
*553 test_pe_comp/test_shifter/U115
*554 test_pe_comp/test_shifter/U58
*555 test_pe_comp/test_shifter/U30
*556 test_pe_comp/test_shifter/U19
*557 test_pe_comp/test_shifter/n126
*558 test_pe_comp/test_shifter/n121
*559 test_pe_comp/test_shifter/n122
*560 test_pe_comp/test_shifter/U117
*561 test_pe_comp/test_shifter/U116
*562 test_pe_comp/test_shifter/n123
*563 test_pe_comp/test_shifter/n120
*564 test_pe_comp/test_shifter/U29
*565 test_pe_comp/test_shifter/U79
*566 test_pe_comp/test_shifter/U147
*567 test_pe_comp/test_shifter/U1
*568 test_pe_comp/test_shifter/n118
*569 test_pe_comp/test_shifter/U151
*570 test_pe_comp/test_shifter/U57
*571 test_pe_comp/test_shifter/n119
*572 test_pe_comp/shift_res\[4\]
*573 test_pe_comp/U247
*574 test_pe_comp/test_shifter/n116
*575 test_pe_comp/test_shifter/U101
*576 test_pe_comp/test_shifter/n117
*577 test_pe_comp/test_shifter/U105
*578 test_pe_comp/test_shifter/U104
*579 test_pe_comp/shift_res\[2\]
*580 test_pe_comp/U231
*581 test_pe_comp/test_shifter/n114
*582 test_pe_comp/test_shifter/n115
*583 test_pe_comp/test_shifter/n113
*584 op_code\[6\]
*585 test_pe_comp/U379
*586 test_pe_comp/test_mult_add/U182
*587 test_pe_comp/test_mult_add/U57
*588 test_pe_comp/test_mult_add/U23
*589 test_pe_comp/test_mult_add/U12
*590 test_pe_comp/test_shifter/n112
*591 test_pe_comp/test_shifter/U35
*592 test_pe_comp/test_shifter/U12
*593 test_pe_comp/test_shifter/U140
*594 test_pe_comp/test_shifter/U95
*595 test_pe_comp/test_shifter/U61
*596 test_pe_comp/test_shifter/U51
*597 test_pe_comp/n305
*598 test_pe_comp/test_mult_add/U605
*599 test_pe_comp/test_mult_add/U609
*600 test_pe_comp/test_mult_add/U613
*601 test_pe_comp/test_mult_add/U621
*602 test_pe_comp/test_mult_add/U617
*603 test_pe_comp/test_mult_add/U601
*604 test_pe_comp/test_mult_add/U186
*605 test_pe_comp/test_mult_add/U468
*606 test_pe_comp/test_mult_add/U470
*607 test_pe_comp/test_mult_add/U465
*608 test_pe_comp/test_mult_add/U89
*609 test_pe_comp/test_mult_add/U569
*610 test_pe_comp/test_mult_add/U585
*611 test_pe_comp/test_mult_add/U597
*612 test_pe_comp/test_mult_add/U573
*613 test_pe_comp/test_mult_add/U559
*614 test_pe_comp/test_mult_add/U589
*615 test_pe_comp/test_mult_add/U565
*616 test_pe_comp/test_mult_add/U581
*617 test_pe_comp/test_mult_add/U593
*618 test_pe_comp/test_mult_add/U577
*619 test_pe_comp/test_mult_add/U657
*620 test_pe_comp/test_shifter/U121
*621 test_pe_comp/test_shifter/U112
*622 test_pe_comp/U59
*623 test_pe_comp/U228
*624 test_pe_comp/U235
*625 test_pe_comp/U27
*626 test_pe_comp/U58
*627 test_pe_comp/GEN_ADD_0__full_add/U14
*628 op_b\[2\]
*629 test_opt_reg_file/U7
*630 U23
*631 test_pe_comp/test_shifter/n110
*632 test_pe_comp/test_shifter/U146
*633 test_pe_comp/test_shifter/n111
*634 test_pe_comp/shift_res\[1\]
*635 test_pe_comp/U223
*636 test_pe_comp/test_shifter/n109
*637 test_pe_comp/test_shifter/U129
*638 test_pe_comp/test_shifter/n108
*639 test_pe_comp/test_shifter/n106
*640 test_pe_comp/test_shifter/U80
*641 test_pe_comp/test_shifter/n107
*642 test_pe_comp/test_shifter/U91
*643 test_pe_comp/test_shifter/n105
*644 test_pe_comp/test_shifter/U47
*645 test_pe_comp/test_shifter/U102
*646 test_pe_comp/test_shifter/U81
*647 test_pe_comp/test_shifter/n103
*648 test_pe_comp/test_shifter/U52
*649 test_pe_comp/test_shifter/U40
*650 test_pe_comp/test_shifter/U26
*651 test_pe_comp/test_shifter/U20
*652 test_pe_comp/test_shifter/U6
*653 test_pe_comp/test_shifter/U141
*654 test_pe_comp/test_shifter/U132
*655 test_pe_comp/test_shifter/U122
*656 test_pe_comp/test_shifter/U96
*657 test_pe_comp/test_shifter/U83
*658 test_pe_comp/test_shifter/U67
*659 test_pe_comp/test_shifter/U64
*660 test_pe_comp/shift_res\[0\]
*661 test_pe_comp/U215
*662 test_pe_comp/test_shifter/n102
*663 test_pe_comp/test_shifter/U137
*664 test_pe_comp/test_shifter/n104
*665 test_pe_comp/test_shifter/n101
*666 test_pe_comp/test_shifter/U139
*667 test_pe_comp/test_shifter/U135
*668 test_pe_comp/shift_res\[15\]
*669 test_pe_comp/U335
*670 test_pe_comp/test_shifter/n100
*671 test_pe_comp/test_shifter/n98
*672 test_pe_comp/test_shifter/U36
*673 test_pe_comp/test_shifter/n99
*674 test_pe_comp/test_shifter/U110
*675 test_pe_comp/test_shifter/U45
*676 test_pe_comp/test_shifter/U33
*677 op_a\[15\]
*678 test_pe_comp/U49
*679 test_opt_reg_a/U5
*680 test_pe_comp/test_shifter/n97
*681 test_pe_comp/test_shifter/U131
*682 test_pe_comp/test_shifter/n96
*683 test_pe_comp/test_shifter/n95
*684 test_pe_comp/test_shifter/n94
*685 test_pe_comp/test_shifter/n93
*686 test_pe_comp/test_shifter/n91
*687 test_pe_comp/test_shifter/U134
*688 test_pe_comp/test_shifter/n92
*689 test_pe_comp/test_shifter/U114
*690 test_pe_comp/test_shifter/n89
*691 test_pe_comp/test_shifter/U133
*692 test_pe_comp/test_shifter/n90
*693 op_a\[1\]
*694 test_opt_reg_a/U8
*695 test_pe_comp/U54
*696 op_a\[14\]
*697 test_pe_comp/U214
*698 test_opt_reg_a/U21
*699 test_pe_comp/test_shifter/n88
*700 test_pe_comp/test_shifter/U39
*701 test_pe_comp/test_shifter/U27
*702 test_pe_comp/test_shifter/U21
*703 test_pe_comp/test_shifter/U10
*704 test_pe_comp/test_shifter/U7
*705 test_pe_comp/test_shifter/U113
*706 test_pe_comp/test_shifter/U97
*707 test_pe_comp/test_shifter/U84
*708 test_pe_comp/test_shifter/U68
*709 test_pe_comp/test_shifter/U65
*710 test_pe_comp/test_shifter/U41
*711 op_a\[0\]
*712 test_opt_reg_a/U7
*713 test_pe_comp/U52
*714 test_pe_comp/test_mult_add/U558
*715 test_pe_comp/GEN_ADD_0__full_add/U16
*716 test_pe_comp/U219
*717 test_pe_comp/U207
*718 test_pe_comp/U22
*719 test_pe_comp/test_shifter/n84
*720 test_pe_comp/test_shifter/U106
*721 test_pe_comp/test_shifter/n85
*722 test_pe_comp/shift_res\[14\]
*723 test_pe_comp/U327
*724 test_pe_comp/test_shifter/n83
*725 test_pe_comp/test_shifter/n82
*726 test_pe_comp/test_shifter/n80
*727 test_pe_comp/test_shifter/n79
*728 test_pe_comp/test_shifter/n78
*729 test_pe_comp/test_shifter/U24
*730 test_pe_comp/test_shifter/n76
*731 test_pe_comp/test_shifter/U28
*732 test_pe_comp/test_shifter/n72
*733 test_pe_comp/test_shifter/U124
*734 test_pe_comp/test_shifter/n73
*735 test_pe_comp/test_shifter/n74
*736 test_pe_comp/test_shifter/U11
*737 op_a\[13\]
*738 test_pe_comp/U209
*739 test_opt_reg_a/U20
*740 test_pe_comp/test_shifter/n71
*741 test_pe_comp/test_shifter/n70
*742 op_a\[2\]
*743 test_opt_reg_a/U9
*744 test_pe_comp/test_shifter/n68
*745 test_pe_comp/test_shifter/n69
*746 test_pe_comp/shift_res\[13\]
*747 test_pe_comp/U319
*748 test_pe_comp/test_shifter/n66
*749 test_pe_comp/test_shifter/n65
*750 test_pe_comp/test_shifter/n64
*751 test_pe_comp/test_shifter/n62
*752 test_pe_comp/test_shifter/U87
*753 test_pe_comp/test_shifter/n63
*754 test_pe_comp/test_shifter/U98
*755 test_pe_comp/test_shifter/n60
*756 test_pe_comp/test_shifter/n61
*757 op_a\[3\]
*758 test_opt_reg_a/U10
*759 test_pe_comp/U62
*760 op_a\[12\]
*761 test_pe_comp/U315
*762 test_pe_comp/U308
*763 test_pe_comp/U64
*764 test_pe_comp/U206
*765 test_opt_reg_a/U19
*766 test_pe_comp/test_mult_add/U10
*767 test_pe_comp/test_mult_add/U8
*768 test_pe_comp/GEN_ADD_0__full_add/U4
*769 test_pe_comp/test_shifter/n59
*770 test_pe_comp/shift_res\[12\]
*771 test_pe_comp/test_shifter/U107
*772 test_pe_comp/U311
*773 test_pe_comp/test_shifter/n58
*774 test_pe_comp/test_shifter/U103
*775 test_pe_comp/test_shifter/n57
*776 test_pe_comp/test_shifter/n56
*777 test_pe_comp/test_shifter/n55
*778 test_pe_comp/test_shifter/n54
*779 test_pe_comp/shift_res\[11\]
*780 test_pe_comp/U303
*781 test_pe_comp/test_shifter/n53
*782 test_pe_comp/test_shifter/n52
*783 test_pe_comp/test_shifter/n51
*784 test_pe_comp/test_shifter/n50
*785 test_pe_comp/test_shifter/n49
*786 test_pe_comp/test_shifter/U85
*787 test_pe_comp/test_shifter/n47
*788 test_pe_comp/test_shifter/n48
*789 op_a\[5\]
*790 test_opt_reg_a/U12
*791 test_pe_comp/U68
*792 op_a\[10\]
*793 test_pe_comp/GEN_ADD_0__full_add/U6
*794 test_pe_comp/U299
*795 test_pe_comp/U292
*796 test_pe_comp/U53
*797 test_opt_reg_a/U39
*798 test_pe_comp/U171
*799 test_pe_comp/test_mult_add/U125
*800 test_pe_comp/test_mult_add/U22
*801 test_pe_comp/test_mult_add/U20
*802 op_a\[11\]
*803 test_pe_comp/U172
*804 test_opt_reg_a/U18
*805 op_a\[4\]
*806 test_opt_reg_a/U11
*807 test_pe_comp/U65
*808 test_pe_comp/test_shifter/n46
*809 test_pe_comp/test_shifter/U15
*810 test_pe_comp/test_shifter/U14
*811 test_pe_comp/shift_res\[9\]
*812 test_pe_comp/U287
*813 test_pe_comp/test_shifter/n45
*814 test_pe_comp/test_shifter/n44
*815 test_pe_comp/test_shifter/n43
*816 test_pe_comp/test_shifter/n42
*817 test_pe_comp/test_shifter/n40
*818 test_pe_comp/test_shifter/U18
*819 test_pe_comp/test_shifter/n41
*820 test_pe_comp/test_shifter/n38
*821 test_pe_comp/test_shifter/U66
*822 test_pe_comp/test_shifter/n39
*823 test_pe_comp/test_shifter/n37
*824 test_pe_comp/test_shifter/U69
*825 test_pe_comp/test_shifter/n35
*826 test_pe_comp/test_shifter/n36
*827 op_a\[7\]
*828 test_opt_reg_a/U14
*829 test_pe_comp/U102
*830 op_a\[8\]
*831 test_opt_reg_a/U15
*832 test_pe_comp/U117
*833 op_a\[6\]
*834 test_opt_reg_a/U13
*835 test_pe_comp/U75
*836 op_a\[9\]
*837 test_pe_comp/U291
*838 test_pe_comp/U284
*839 test_pe_comp/U50
*840 test_opt_reg_a/U16
*841 test_pe_comp/U166
*842 test_pe_comp/test_mult_add/U18
*843 test_pe_comp/GEN_ADD_0__full_add/U7
*844 test_pe_comp/test_shifter/n34
*845 test_pe_comp/test_shifter/U32
*846 test_pe_comp/test_shifter/n33
*847 test_pe_comp/test_shifter/n31
*848 test_pe_comp/test_shifter/U22
*849 test_pe_comp/test_shifter/n32
*850 test_pe_comp/test_shifter/U42
*851 test_pe_comp/test_shifter/n30
*852 test_pe_comp/test_shifter/n29
*853 test_pe_comp/shift_res\[7\]
*854 test_pe_comp/U271
*855 test_pe_comp/test_shifter/n28
*856 test_pe_comp/test_shifter/n27
*857 test_pe_comp/test_shifter/n25
*858 test_pe_comp/test_shifter/n26
*859 test_pe_comp/test_shifter/n23
*860 test_pe_comp/test_shifter/n24
*861 test_pe_comp/test_shifter/n22
*862 test_pe_comp/test_shifter/U59
*863 test_pe_comp/test_shifter/n20
*864 test_pe_comp/test_shifter/n21
*865 test_pe_comp/test_shifter/n19
*866 test_pe_comp/test_shifter/n17
*867 test_pe_comp/test_shifter/n14
*868 test_pe_comp/test_shifter/n15
*869 test_pe_comp/shift_res\[3\]
*870 test_pe_comp/U239
*871 test_pe_comp/test_shifter/n16
*872 test_pe_comp/test_shifter/n13
*873 op_b\[0\]
*874 test_opt_reg_file/U6
*875 U22
*876 test_pe_comp/test_shifter/n12
*877 test_pe_comp/test_shifter/U31
*878 test_pe_comp/test_shifter/n10
*879 test_pe_comp/test_shifter/n11
*880 test_pe_comp/test_shifter/n8
*881 test_pe_comp/test_shifter/n9
*882 test_pe_comp/test_shifter/n7
*883 test_pe_comp/test_shifter/U23
*884 test_pe_comp/test_shifter/n5
*885 test_pe_comp/test_shifter/U13
*886 test_pe_comp/test_shifter/U3
*887 test_pe_comp/test_shifter/n6
*888 test_pe_comp/test_shifter/U9
*889 test_pe_comp/test_shifter/n3
*890 test_pe_comp/test_shifter/n4
*891 test_pe_comp/test_shifter/n1
*892 test_pe_comp/test_shifter/n2
*893 test_pe_comp/test_mult_add/n753
*894 test_pe_comp/test_mult_add/U662
*895 test_pe_comp/test_mult_add/U659
*896 test_pe_comp/test_mult_add/U626
*897 test_pe_comp/test_mult_add/U46
*898 test_pe_comp/test_mult_add/n752
*899 test_pe_comp/test_mult_add/U658
*900 test_pe_comp/test_mult_add/n751
*901 test_pe_comp/test_mult_add/U661
*902 test_pe_comp/mult_c_out
*903 test_pe_comp/U189
*904 test_pe_comp/test_mult_add/n750
*905 test_pe_comp/test_mult_add/n749
*906 test_pe_comp/test_mult_add/U660
*907 test_pe_comp/test_mult_add/n748
*908 test_pe_comp/test_mult_add/U627
*909 test_pe_comp/test_mult_add/n747
*910 test_pe_comp/test_mult_add/U45
*911 test_pe_comp/test_mult_add/n744
*912 test_pe_comp/test_mult_add/U1
*913 test_pe_comp/test_mult_add/U622
*914 test_pe_comp/test_mult_add/U619
*915 test_pe_comp/test_mult_add/U265
*916 test_pe_comp/test_mult_add/U163
*917 test_pe_comp/test_mult_add/U70
*918 test_pe_comp/test_mult_add/U68
*919 test_pe_comp/test_mult_add/n743
*920 test_pe_comp/test_mult_add/U2
*921 test_pe_comp/test_mult_add/U37
*922 test_pe_comp/test_mult_add/U33
*923 test_pe_comp/test_mult_add/U113
*924 test_pe_comp/test_mult_add/U104
*925 test_pe_comp/test_mult_add/U101
*926 test_pe_comp/test_mult_add/U97
*927 test_pe_comp/test_mult_add/U67
*928 test_pe_comp/test_mult_add/U50
*929 test_pe_comp/test_mult_add/U43
*930 test_pe_comp/test_mult_add/U294
*931 test_pe_comp/test_mult_add/U209
*932 test_pe_comp/test_mult_add/U200
*933 test_pe_comp/test_mult_add/U197
*934 test_pe_comp/test_mult_add/U189
*935 test_pe_comp/test_mult_add/U172
*936 test_pe_comp/test_mult_add/U156
*937 test_pe_comp/test_mult_add/n741
*938 test_pe_comp/test_mult_add/n740
*939 test_pe_comp/test_mult_add/U656
*940 op_c\[0\]
*941 test_pe_comp/GEN_ADD_1__full_add/U16
*942 test_pe_comp/U175
*943 test_pe_comp/U361
*944 test_opt_reg_c/U6
*945 test_pe_comp/mult_res\[0\]
*946 test_pe_comp/U216
*947 test_pe_comp/test_mult_add/n739
*948 test_pe_comp/test_mult_add/U561
*949 op_c\[1\]
*950 test_pe_comp/GEN_ADD_1__full_add/U15
*951 test_pe_comp/U176
*952 test_pe_comp/U362
*953 test_opt_reg_c/U7
*954 test_pe_comp/test_mult_add/n738
*955 test_pe_comp/test_mult_add/U655
*956 test_pe_comp/mult_res\[1\]
*957 test_pe_comp/U224
*958 test_pe_comp/test_mult_add/n737
*959 op_c\[2\]
*960 test_pe_comp/GEN_ADD_1__full_add/U14
*961 test_pe_comp/U174
*962 test_pe_comp/U173
*963 test_opt_reg_c/U8
*964 test_pe_comp/test_mult_add/n735
*965 test_pe_comp/test_mult_add/U654
*966 test_pe_comp/mult_res\[2\]
*967 test_pe_comp/U232
*968 test_pe_comp/test_mult_add/n734
*969 test_pe_comp/test_mult_add/n736
*970 test_pe_comp/test_mult_add/U557
*971 test_pe_comp/test_mult_add/n732
*972 test_pe_comp/test_mult_add/U653
*973 test_pe_comp/mult_res\[3\]
*974 test_pe_comp/U240
*975 test_pe_comp/test_mult_add/n731
*976 test_pe_comp/test_mult_add/n733
*977 test_pe_comp/test_mult_add/U556
*978 test_pe_comp/test_mult_add/n729
*979 test_pe_comp/test_mult_add/U652
*980 test_pe_comp/mult_res\[4\]
*981 test_pe_comp/U248
*982 test_pe_comp/test_mult_add/n728
*983 test_pe_comp/test_mult_add/n730
*984 test_pe_comp/test_mult_add/U555
*985 test_pe_comp/test_mult_add/n726
*986 test_pe_comp/test_mult_add/U651
*987 test_pe_comp/mult_res\[5\]
*988 test_pe_comp/U256
*989 test_pe_comp/test_mult_add/n725
*990 test_pe_comp/test_mult_add/n727
*991 test_pe_comp/test_mult_add/U554
*992 test_pe_comp/test_mult_add/n723
*993 test_pe_comp/test_mult_add/U650
*994 test_pe_comp/mult_res\[6\]
*995 test_pe_comp/U264
*996 test_pe_comp/test_mult_add/n722
*997 test_pe_comp/test_mult_add/n724
*998 test_pe_comp/test_mult_add/U553
*999 test_pe_comp/test_mult_add/n720
*1000 test_pe_comp/test_mult_add/U649
*1001 test_pe_comp/mult_res\[7\]
*1002 test_pe_comp/U272
*1003 test_pe_comp/test_mult_add/n719
*1004 test_pe_comp/test_mult_add/n721
*1005 test_pe_comp/test_mult_add/U552
*1006 test_pe_comp/test_mult_add/n717
*1007 test_pe_comp/test_mult_add/U648
*1008 test_pe_comp/mult_res\[8\]
*1009 test_pe_comp/U280
*1010 test_pe_comp/test_mult_add/n716
*1011 test_pe_comp/test_mult_add/n718
*1012 test_pe_comp/test_mult_add/U551
*1013 test_pe_comp/test_mult_add/n714
*1014 test_pe_comp/test_mult_add/U647
*1015 test_pe_comp/mult_res\[9\]
*1016 test_pe_comp/U288
*1017 test_pe_comp/U221
*1018 test_pe_comp/test_mult_add/n713
*1019 test_pe_comp/test_mult_add/n715
*1020 test_pe_comp/test_mult_add/U550
*1021 test_pe_comp/test_mult_add/n711
*1022 test_pe_comp/test_mult_add/U646
*1023 test_pe_comp/mult_res\[10\]
*1024 test_pe_comp/U296
*1025 test_pe_comp/U229
*1026 test_pe_comp/test_mult_add/n710
*1027 test_pe_comp/test_mult_add/n712
*1028 test_pe_comp/test_mult_add/U549
*1029 test_pe_comp/test_mult_add/n708
*1030 test_pe_comp/test_mult_add/U645
*1031 test_pe_comp/mult_res\[11\]
*1032 test_pe_comp/U304
*1033 test_pe_comp/U237
*1034 test_pe_comp/test_mult_add/n707
*1035 test_pe_comp/test_mult_add/n709
*1036 test_pe_comp/test_mult_add/U548
*1037 test_pe_comp/test_mult_add/n705
*1038 test_pe_comp/test_mult_add/U644
*1039 test_pe_comp/mult_res\[12\]
*1040 test_pe_comp/U312
*1041 test_pe_comp/U245
*1042 test_pe_comp/test_mult_add/n704
*1043 test_pe_comp/test_mult_add/n706
*1044 test_pe_comp/test_mult_add/U547
*1045 test_pe_comp/test_mult_add/n702
*1046 test_pe_comp/test_mult_add/U643
*1047 test_pe_comp/mult_res\[13\]
*1048 test_pe_comp/U320
*1049 test_pe_comp/U253
*1050 test_pe_comp/test_mult_add/n701
*1051 test_pe_comp/test_mult_add/n703
*1052 test_pe_comp/test_mult_add/U546
*1053 test_pe_comp/test_mult_add/n699
*1054 test_pe_comp/test_mult_add/U642
*1055 test_pe_comp/mult_res\[14\]
*1056 test_pe_comp/U328
*1057 test_pe_comp/U261
*1058 test_pe_comp/test_mult_add/n698
*1059 test_pe_comp/test_mult_add/n700
*1060 test_pe_comp/test_mult_add/U545
*1061 test_pe_comp/test_mult_add/n696
*1062 test_pe_comp/test_mult_add/U641
*1063 test_pe_comp/mult_res\[15\]
*1064 test_pe_comp/U370
*1065 test_pe_comp/test_mult_add/n695
*1066 test_pe_comp/test_mult_add/n697
*1067 test_pe_comp/test_mult_add/U544
*1068 test_pe_comp/test_mult_add/n692
*1069 test_pe_comp/test_mult_add/U640
*1070 test_pe_comp/mult_res\[16\]
*1071 test_pe_comp/U277
*1072 test_pe_comp/U210
*1073 test_pe_comp/U119
*1074 test_pe_comp/test_mult_add/n694
*1075 test_pe_comp/test_mult_add/U480
*1076 test_pe_comp/test_mult_add/n689
*1077 test_pe_comp/test_mult_add/U639
*1078 test_pe_comp/test_mult_add/n693
*1079 test_pe_comp/mult_res\[17\]
*1080 test_pe_comp/U285
*1081 test_pe_comp/test_mult_add/n691
*1082 test_pe_comp/test_mult_add/U462
*1083 test_pe_comp/test_mult_add/n687
*1084 test_pe_comp/test_mult_add/U638
*1085 test_pe_comp/test_mult_add/n690
*1086 test_pe_comp/test_mult_add/U478
*1087 test_pe_comp/mult_res\[18\]
*1088 test_pe_comp/U373
*1089 test_pe_comp/test_mult_add/n686
*1090 test_pe_comp/test_mult_add/U625
*1091 test_pe_comp/test_mult_add/n688
*1092 test_pe_comp/test_mult_add/U461
*1093 test_pe_comp/test_mult_add/n683
*1094 test_pe_comp/test_mult_add/U637
*1095 test_pe_comp/mult_res\[19\]
*1096 test_pe_comp/U374
*1097 test_pe_comp/test_mult_add/n685
*1098 test_pe_comp/test_mult_add/U397
*1099 test_pe_comp/test_mult_add/n680